
No compatibility mode selected!


Circuit: transient analysis - bgr circuit 

Doing analysis at TEMP = 27.000000 and TNOM = 27.000000

Using transient initial conditions

No. of Data Rows : 3036
                       transient analysis - bgr circuit 
                       Transient Analysis  Thu Sep 29 15:21:55  2022
--------------------------------------------------------------------------------
Index   time            v(bgr)          
--------------------------------------------------------------------------------
0	1.000000e-10	1.705087e+00	
1	1.028106e-10	1.703469e+00	
2	1.084319e-10	1.699947e+00	
3	1.196744e-10	1.693287e+00	
4	1.421594e-10	1.681706e+00	
5	1.718301e-10	1.668512e+00	
6	2.266870e-10	1.647844e+00	
7	3.322412e-10	1.615534e+00	
8	5.163693e-10	1.571617e+00	
9	8.846255e-10	1.505774e+00	
10	1.466254e-09	1.430004e+00	
11	2.458102e-09	1.334210e+00	
12	4.025065e-09	1.214817e+00	
13	6.659424e-09	9.999886e-01	
14	8.954040e-09	1.607412e+00	
15	1.000000e-08	1.686121e+00	
16	1.003309e-08	1.687537e+00	
17	1.009928e-08	1.690271e+00	
18	1.023165e-08	1.695916e+00	
19	1.049640e-08	1.707623e+00	
20	1.078559e-08	1.720158e+00	
21	1.136396e-08	1.740557e+00	
22	1.204269e-08	1.756972e+00	
23	1.276984e-08	1.768662e+00	
24	1.378726e-08	1.778886e+00	
25	1.528726e-08	1.788088e+00	
26	1.795072e-08	1.795747e+00	
27	2.143540e-08	1.798210e+00	
28	2.512189e-08	1.798874e+00	
29	2.932522e-08	1.798928e+00	
30	3.550486e-08	1.799014e+00	
31	4.550486e-08	1.798953e+00	
32	5.550486e-08	1.799009e+00	
33	6.550486e-08	1.798957e+00	
34	7.550486e-08	1.799005e+00	
35	8.550486e-08	1.798960e+00	
36	9.550486e-08	1.799002e+00	
37	1.055049e-07	1.798963e+00	
38	1.155049e-07	1.799000e+00	
39	1.255049e-07	1.798965e+00	
40	1.355049e-07	1.798997e+00	
41	1.455049e-07	1.798968e+00	
42	1.555049e-07	1.798995e+00	
43	1.655049e-07	1.798970e+00	
44	1.755049e-07	1.798993e+00	
45	1.855049e-07	1.798971e+00	
46	1.955049e-07	1.798992e+00	
47	2.055049e-07	1.798973e+00	
48	2.155049e-07	1.798990e+00	
49	2.255049e-07	1.798974e+00	
50	2.355049e-07	1.798989e+00	
51	2.455049e-07	1.798976e+00	
52	2.555049e-07	1.798988e+00	
53	2.655049e-07	1.798977e+00	
54	2.755049e-07	1.798987e+00	

Index   time            v(bgr)          
--------------------------------------------------------------------------------
55	2.855049e-07	1.798977e+00	
56	2.955049e-07	1.798986e+00	
57	3.055049e-07	1.798978e+00	
58	3.155049e-07	1.798985e+00	
59	3.255049e-07	1.798979e+00	
60	3.355049e-07	1.798985e+00	
61	3.455049e-07	1.798980e+00	
62	3.555049e-07	1.798984e+00	
63	3.655049e-07	1.798980e+00	
64	3.755049e-07	1.798984e+00	
65	3.855049e-07	1.798981e+00	
66	3.955049e-07	1.798983e+00	
67	4.055049e-07	1.798981e+00	
68	4.155049e-07	1.798983e+00	
69	4.255049e-07	1.798981e+00	
70	4.355049e-07	1.798982e+00	
71	4.455049e-07	1.798982e+00	
72	4.555049e-07	1.798982e+00	
73	4.655049e-07	1.798982e+00	
74	4.755049e-07	1.798982e+00	
75	4.855049e-07	1.798982e+00	
76	4.955049e-07	1.798982e+00	
77	5.055049e-07	1.798982e+00	
78	5.155049e-07	1.798981e+00	
79	5.255049e-07	1.798983e+00	
80	5.355049e-07	1.798981e+00	
81	5.455049e-07	1.798983e+00	
82	5.555049e-07	1.798981e+00	
83	5.655049e-07	1.798983e+00	
84	5.755049e-07	1.798981e+00	
85	5.855049e-07	1.798983e+00	
86	5.955049e-07	1.798981e+00	
87	6.055049e-07	1.798983e+00	
88	6.155049e-07	1.798981e+00	
89	6.255049e-07	1.798983e+00	
90	6.355049e-07	1.798981e+00	
91	6.455049e-07	1.798983e+00	
92	6.555049e-07	1.798981e+00	
93	6.655049e-07	1.798983e+00	
94	6.755049e-07	1.798981e+00	
95	6.855049e-07	1.798983e+00	
96	6.955049e-07	1.798980e+00	
97	7.055049e-07	1.798983e+00	
98	7.155049e-07	1.798980e+00	
99	7.255049e-07	1.798984e+00	
100	7.355049e-07	1.798980e+00	
101	7.455049e-07	1.798984e+00	
102	7.555049e-07	1.798980e+00	
103	7.655049e-07	1.798984e+00	
104	7.755049e-07	1.798980e+00	
105	7.855049e-07	1.798984e+00	
106	7.955049e-07	1.798980e+00	
107	8.055049e-07	1.798984e+00	
108	8.155049e-07	1.798980e+00	
109	8.255049e-07	1.798984e+00	
110	8.355049e-07	1.798980e+00	
111	8.455049e-07	1.798984e+00	
112	8.555049e-07	1.798980e+00	

Index   time            v(bgr)          
--------------------------------------------------------------------------------
113	8.655049e-07	1.798984e+00	
114	8.755049e-07	1.798980e+00	
115	8.855049e-07	1.798984e+00	
116	8.955049e-07	1.798980e+00	
117	9.055049e-07	1.798984e+00	
118	9.155049e-07	1.798980e+00	
119	9.255049e-07	1.798984e+00	
120	9.355049e-07	1.798980e+00	
121	9.455049e-07	1.798984e+00	
122	9.555049e-07	1.798980e+00	
123	9.655049e-07	1.798984e+00	
124	9.755049e-07	1.798980e+00	
125	9.855049e-07	1.798984e+00	
126	9.955049e-07	1.798980e+00	
127	1.005505e-06	1.798984e+00	
128	1.015505e-06	1.798980e+00	
129	1.025505e-06	1.798984e+00	
130	1.035505e-06	1.798980e+00	
131	1.045505e-06	1.798984e+00	
132	1.055505e-06	1.798980e+00	
133	1.065505e-06	1.798984e+00	
134	1.075505e-06	1.798980e+00	
135	1.085505e-06	1.798984e+00	
136	1.095505e-06	1.798980e+00	
137	1.105505e-06	1.798984e+00	
138	1.115505e-06	1.798980e+00	
139	1.125505e-06	1.798984e+00	
140	1.135505e-06	1.798980e+00	
141	1.145505e-06	1.798984e+00	
142	1.155505e-06	1.798980e+00	
143	1.165505e-06	1.798984e+00	
144	1.175505e-06	1.798980e+00	
145	1.185505e-06	1.798984e+00	
146	1.195505e-06	1.798980e+00	
147	1.205505e-06	1.798984e+00	
148	1.215505e-06	1.798980e+00	
149	1.225505e-06	1.798984e+00	
150	1.235505e-06	1.798980e+00	
151	1.245505e-06	1.798984e+00	
152	1.255505e-06	1.798980e+00	
153	1.265505e-06	1.798984e+00	
154	1.275505e-06	1.798980e+00	
155	1.285505e-06	1.798984e+00	
156	1.295505e-06	1.798980e+00	
157	1.305505e-06	1.798984e+00	
158	1.315505e-06	1.798980e+00	
159	1.325505e-06	1.798984e+00	
160	1.335505e-06	1.798980e+00	
161	1.345505e-06	1.798984e+00	
162	1.355505e-06	1.798980e+00	
163	1.365505e-06	1.798984e+00	
164	1.375505e-06	1.798980e+00	
165	1.385505e-06	1.798984e+00	
166	1.395505e-06	1.798980e+00	
167	1.405505e-06	1.798983e+00	
168	1.415505e-06	1.798980e+00	
169	1.425505e-06	1.798983e+00	
170	1.435505e-06	1.798980e+00	

Index   time            v(bgr)          
--------------------------------------------------------------------------------
171	1.445505e-06	1.798983e+00	
172	1.455505e-06	1.798980e+00	
173	1.465505e-06	1.798983e+00	
174	1.475505e-06	1.798980e+00	
175	1.485505e-06	1.798983e+00	
176	1.495505e-06	1.798980e+00	
177	1.505505e-06	1.798983e+00	
178	1.515505e-06	1.798980e+00	
179	1.525505e-06	1.798983e+00	
180	1.535505e-06	1.798980e+00	
181	1.545505e-06	1.798983e+00	
182	1.555505e-06	1.798980e+00	
183	1.565505e-06	1.798983e+00	
184	1.575505e-06	1.798980e+00	
185	1.585505e-06	1.798983e+00	
186	1.595505e-06	1.798980e+00	
187	1.605505e-06	1.798983e+00	
188	1.615505e-06	1.798981e+00	
189	1.625505e-06	1.798983e+00	
190	1.635505e-06	1.798981e+00	
191	1.645505e-06	1.798983e+00	
192	1.655505e-06	1.798981e+00	
193	1.665505e-06	1.798983e+00	
194	1.675505e-06	1.798981e+00	
195	1.685505e-06	1.798983e+00	
196	1.695505e-06	1.798981e+00	
197	1.705505e-06	1.798983e+00	
198	1.715505e-06	1.798981e+00	
199	1.725505e-06	1.798983e+00	
200	1.735505e-06	1.798981e+00	
201	1.745505e-06	1.798983e+00	
202	1.755505e-06	1.798981e+00	
203	1.765505e-06	1.798983e+00	
204	1.775505e-06	1.798981e+00	
205	1.785505e-06	1.798983e+00	
206	1.795505e-06	1.798981e+00	
207	1.805505e-06	1.798983e+00	
208	1.815505e-06	1.798981e+00	
209	1.825505e-06	1.798983e+00	
210	1.835505e-06	1.798981e+00	
211	1.845505e-06	1.798983e+00	
212	1.855505e-06	1.798981e+00	
213	1.865505e-06	1.798983e+00	
214	1.875505e-06	1.798981e+00	
215	1.885505e-06	1.798983e+00	
216	1.895505e-06	1.798981e+00	
217	1.905505e-06	1.798983e+00	
218	1.915505e-06	1.798981e+00	
219	1.925505e-06	1.798983e+00	
220	1.935505e-06	1.798981e+00	
221	1.945505e-06	1.798983e+00	
222	1.955505e-06	1.798981e+00	
223	1.965505e-06	1.798983e+00	
224	1.975505e-06	1.798981e+00	
225	1.985505e-06	1.798983e+00	
226	1.995505e-06	1.798981e+00	
227	2.005505e-06	1.798983e+00	
228	2.015505e-06	1.798981e+00	

Index   time            v(bgr)          
--------------------------------------------------------------------------------
229	2.025505e-06	1.798983e+00	
230	2.035505e-06	1.798981e+00	
231	2.045505e-06	1.798983e+00	
232	2.055505e-06	1.798981e+00	
233	2.065505e-06	1.798983e+00	
234	2.075505e-06	1.798981e+00	
235	2.085505e-06	1.798983e+00	
236	2.095505e-06	1.798981e+00	
237	2.105505e-06	1.798983e+00	
238	2.115505e-06	1.798981e+00	
239	2.125505e-06	1.798983e+00	
240	2.135505e-06	1.798981e+00	
241	2.145505e-06	1.798983e+00	
242	2.155505e-06	1.798981e+00	
243	2.165505e-06	1.798983e+00	
244	2.175505e-06	1.798981e+00	
245	2.185505e-06	1.798983e+00	
246	2.195505e-06	1.798981e+00	
247	2.205505e-06	1.798983e+00	
248	2.215505e-06	1.798981e+00	
249	2.225505e-06	1.798983e+00	
250	2.235505e-06	1.798981e+00	
251	2.245505e-06	1.798983e+00	
252	2.255505e-06	1.798981e+00	
253	2.265505e-06	1.798983e+00	
254	2.275505e-06	1.798981e+00	
255	2.285505e-06	1.798983e+00	
256	2.295505e-06	1.798981e+00	
257	2.305505e-06	1.798983e+00	
258	2.315505e-06	1.798981e+00	
259	2.325505e-06	1.798983e+00	
260	2.335505e-06	1.798981e+00	
261	2.345505e-06	1.798983e+00	
262	2.355505e-06	1.798981e+00	
263	2.365505e-06	1.798983e+00	
264	2.375505e-06	1.798981e+00	
265	2.385505e-06	1.798983e+00	
266	2.395505e-06	1.798981e+00	
267	2.405505e-06	1.798983e+00	
268	2.415505e-06	1.798981e+00	
269	2.425505e-06	1.798983e+00	
270	2.435505e-06	1.798981e+00	
271	2.445505e-06	1.798983e+00	
272	2.455505e-06	1.798981e+00	
273	2.465505e-06	1.798983e+00	
274	2.475505e-06	1.798981e+00	
275	2.485505e-06	1.798983e+00	
276	2.495505e-06	1.798981e+00	
277	2.505505e-06	1.798983e+00	
278	2.515505e-06	1.798981e+00	
279	2.525505e-06	1.798983e+00	
280	2.535505e-06	1.798981e+00	
281	2.545505e-06	1.798983e+00	
282	2.555505e-06	1.798981e+00	
283	2.565505e-06	1.798983e+00	
284	2.575505e-06	1.798981e+00	
285	2.585505e-06	1.798983e+00	
286	2.595505e-06	1.798981e+00	

Index   time            v(bgr)          
--------------------------------------------------------------------------------
287	2.605505e-06	1.798983e+00	
288	2.615505e-06	1.798981e+00	
289	2.625505e-06	1.798983e+00	
290	2.635505e-06	1.798981e+00	
291	2.645505e-06	1.798983e+00	
292	2.655505e-06	1.798981e+00	
293	2.665505e-06	1.798983e+00	
294	2.675505e-06	1.798981e+00	
295	2.685505e-06	1.798983e+00	
296	2.695505e-06	1.798981e+00	
297	2.705505e-06	1.798983e+00	
298	2.715505e-06	1.798981e+00	
299	2.725505e-06	1.798983e+00	
300	2.735505e-06	1.798981e+00	
301	2.745505e-06	1.798983e+00	
302	2.755505e-06	1.798981e+00	
303	2.765505e-06	1.798983e+00	
304	2.775505e-06	1.798981e+00	
305	2.785505e-06	1.798983e+00	
306	2.795505e-06	1.798981e+00	
307	2.805505e-06	1.798983e+00	
308	2.815505e-06	1.798981e+00	
309	2.825505e-06	1.798983e+00	
310	2.835505e-06	1.798981e+00	
311	2.845505e-06	1.798983e+00	
312	2.855505e-06	1.798981e+00	
313	2.865505e-06	1.798983e+00	
314	2.875505e-06	1.798981e+00	
315	2.885505e-06	1.798983e+00	
316	2.895505e-06	1.798981e+00	
317	2.905505e-06	1.798983e+00	
318	2.915505e-06	1.798981e+00	
319	2.925505e-06	1.798983e+00	
320	2.935505e-06	1.798981e+00	
321	2.945505e-06	1.798983e+00	
322	2.955505e-06	1.798981e+00	
323	2.965505e-06	1.798983e+00	
324	2.975505e-06	1.798981e+00	
325	2.985505e-06	1.798983e+00	
326	2.995505e-06	1.798981e+00	
327	3.005505e-06	1.798983e+00	
328	3.015505e-06	1.798981e+00	
329	3.025505e-06	1.798983e+00	
330	3.035505e-06	1.798981e+00	
331	3.045505e-06	1.798983e+00	
332	3.055505e-06	1.798981e+00	
333	3.065505e-06	1.798983e+00	
334	3.075505e-06	1.798981e+00	
335	3.085505e-06	1.798983e+00	
336	3.095505e-06	1.798981e+00	
337	3.105505e-06	1.798983e+00	
338	3.115505e-06	1.798981e+00	
339	3.125505e-06	1.798983e+00	
340	3.135505e-06	1.798981e+00	
341	3.145505e-06	1.798983e+00	
342	3.155505e-06	1.798981e+00	
343	3.165505e-06	1.798983e+00	
344	3.175505e-06	1.798981e+00	

Index   time            v(bgr)          
--------------------------------------------------------------------------------
345	3.185505e-06	1.798983e+00	
346	3.195505e-06	1.798981e+00	
347	3.205505e-06	1.798983e+00	
348	3.215505e-06	1.798981e+00	
349	3.225505e-06	1.798983e+00	
350	3.235505e-06	1.798981e+00	
351	3.245505e-06	1.798983e+00	
352	3.255505e-06	1.798981e+00	
353	3.265505e-06	1.798983e+00	
354	3.275505e-06	1.798981e+00	
355	3.285505e-06	1.798983e+00	
356	3.295505e-06	1.798981e+00	
357	3.305505e-06	1.798983e+00	
358	3.315505e-06	1.798981e+00	
359	3.325505e-06	1.798983e+00	
360	3.335505e-06	1.798981e+00	
361	3.345505e-06	1.798983e+00	
362	3.355505e-06	1.798981e+00	
363	3.365505e-06	1.798983e+00	
364	3.375505e-06	1.798981e+00	
365	3.385505e-06	1.798983e+00	
366	3.395505e-06	1.798981e+00	
367	3.405505e-06	1.798983e+00	
368	3.415505e-06	1.798981e+00	
369	3.425505e-06	1.798983e+00	
370	3.435505e-06	1.798981e+00	
371	3.445505e-06	1.798983e+00	
372	3.455505e-06	1.798981e+00	
373	3.465505e-06	1.798983e+00	
374	3.475505e-06	1.798981e+00	
375	3.485505e-06	1.798983e+00	
376	3.495505e-06	1.798981e+00	
377	3.505505e-06	1.798983e+00	
378	3.515505e-06	1.798981e+00	
379	3.525505e-06	1.798983e+00	
380	3.535505e-06	1.798981e+00	
381	3.545505e-06	1.798983e+00	
382	3.555505e-06	1.798981e+00	
383	3.565505e-06	1.798983e+00	
384	3.575505e-06	1.798981e+00	
385	3.585505e-06	1.798983e+00	
386	3.595505e-06	1.798981e+00	
387	3.605505e-06	1.798983e+00	
388	3.615505e-06	1.798981e+00	
389	3.625505e-06	1.798983e+00	
390	3.635505e-06	1.798981e+00	
391	3.645505e-06	1.798983e+00	
392	3.655505e-06	1.798981e+00	
393	3.665505e-06	1.798983e+00	
394	3.675505e-06	1.798981e+00	
395	3.685505e-06	1.798983e+00	
396	3.695505e-06	1.798981e+00	
397	3.705505e-06	1.798983e+00	
398	3.715505e-06	1.798981e+00	
399	3.725505e-06	1.798983e+00	
400	3.735505e-06	1.798981e+00	
401	3.745505e-06	1.798983e+00	
402	3.755505e-06	1.798981e+00	

Index   time            v(bgr)          
--------------------------------------------------------------------------------
403	3.765505e-06	1.798983e+00	
404	3.775505e-06	1.798981e+00	
405	3.785505e-06	1.798983e+00	
406	3.795505e-06	1.798981e+00	
407	3.805505e-06	1.798983e+00	
408	3.815505e-06	1.798981e+00	
409	3.825505e-06	1.798983e+00	
410	3.835505e-06	1.798981e+00	
411	3.845505e-06	1.798983e+00	
412	3.855505e-06	1.798981e+00	
413	3.865505e-06	1.798983e+00	
414	3.875505e-06	1.798981e+00	
415	3.885505e-06	1.798983e+00	
416	3.895505e-06	1.798981e+00	
417	3.905505e-06	1.798983e+00	
418	3.915505e-06	1.798981e+00	
419	3.925505e-06	1.798983e+00	
420	3.935505e-06	1.798981e+00	
421	3.945505e-06	1.798983e+00	
422	3.955505e-06	1.798981e+00	
423	3.965505e-06	1.798983e+00	
424	3.975505e-06	1.798981e+00	
425	3.985505e-06	1.798983e+00	
426	3.995505e-06	1.798981e+00	
427	4.005505e-06	1.798983e+00	
428	4.015505e-06	1.798981e+00	
429	4.025505e-06	1.798983e+00	
430	4.035505e-06	1.798981e+00	
431	4.045505e-06	1.798983e+00	
432	4.055505e-06	1.798981e+00	
433	4.065505e-06	1.798983e+00	
434	4.075505e-06	1.798981e+00	
435	4.085505e-06	1.798983e+00	
436	4.095505e-06	1.798981e+00	
437	4.105505e-06	1.798983e+00	
438	4.115505e-06	1.798981e+00	
439	4.125505e-06	1.798983e+00	
440	4.135505e-06	1.798981e+00	
441	4.145505e-06	1.798983e+00	
442	4.155505e-06	1.798981e+00	
443	4.165505e-06	1.798983e+00	
444	4.175505e-06	1.798981e+00	
445	4.185505e-06	1.798983e+00	
446	4.195505e-06	1.798981e+00	
447	4.205505e-06	1.798983e+00	
448	4.215505e-06	1.798981e+00	
449	4.225505e-06	1.798983e+00	
450	4.235505e-06	1.798981e+00	
451	4.245505e-06	1.798983e+00	
452	4.255505e-06	1.798981e+00	
453	4.265505e-06	1.798983e+00	
454	4.275505e-06	1.798981e+00	
455	4.285505e-06	1.798983e+00	
456	4.295505e-06	1.798981e+00	
457	4.305505e-06	1.798983e+00	
458	4.315505e-06	1.798981e+00	
459	4.325505e-06	1.798983e+00	
460	4.335505e-06	1.798981e+00	

Index   time            v(bgr)          
--------------------------------------------------------------------------------
461	4.345505e-06	1.798983e+00	
462	4.355505e-06	1.798981e+00	
463	4.365505e-06	1.798983e+00	
464	4.375505e-06	1.798981e+00	
465	4.385505e-06	1.798983e+00	
466	4.395505e-06	1.798981e+00	
467	4.405505e-06	1.798983e+00	
468	4.415505e-06	1.798981e+00	
469	4.425505e-06	1.798983e+00	
470	4.435505e-06	1.798981e+00	
471	4.445505e-06	1.798983e+00	
472	4.455505e-06	1.798981e+00	
473	4.465505e-06	1.798983e+00	
474	4.475505e-06	1.798981e+00	
475	4.485505e-06	1.798983e+00	
476	4.495505e-06	1.798981e+00	
477	4.505505e-06	1.798983e+00	
478	4.515505e-06	1.798981e+00	
479	4.525505e-06	1.798983e+00	
480	4.535505e-06	1.798981e+00	
481	4.545505e-06	1.798983e+00	
482	4.555505e-06	1.798981e+00	
483	4.565505e-06	1.798983e+00	
484	4.575505e-06	1.798981e+00	
485	4.585505e-06	1.798983e+00	
486	4.595505e-06	1.798981e+00	
487	4.605505e-06	1.798983e+00	
488	4.615505e-06	1.798981e+00	
489	4.625505e-06	1.798983e+00	
490	4.635505e-06	1.798981e+00	
491	4.645505e-06	1.798983e+00	
492	4.655505e-06	1.798981e+00	
493	4.665505e-06	1.798983e+00	
494	4.675505e-06	1.798981e+00	
495	4.685505e-06	1.798983e+00	
496	4.695505e-06	1.798981e+00	
497	4.705505e-06	1.798983e+00	
498	4.715505e-06	1.798981e+00	
499	4.725505e-06	1.798983e+00	
500	4.735505e-06	1.798981e+00	
501	4.745505e-06	1.798983e+00	
502	4.755505e-06	1.798981e+00	
503	4.765505e-06	1.798983e+00	
504	4.775505e-06	1.798981e+00	
505	4.785505e-06	1.798983e+00	
506	4.795505e-06	1.798981e+00	
507	4.805505e-06	1.798983e+00	
508	4.815505e-06	1.798981e+00	
509	4.825505e-06	1.798983e+00	
510	4.835505e-06	1.798981e+00	
511	4.845505e-06	1.798983e+00	
512	4.855505e-06	1.798981e+00	
513	4.865505e-06	1.798983e+00	
514	4.875505e-06	1.798981e+00	
515	4.885505e-06	1.798983e+00	
516	4.895505e-06	1.798981e+00	
517	4.905505e-06	1.798983e+00	
518	4.915505e-06	1.798981e+00	

Index   time            v(bgr)          
--------------------------------------------------------------------------------
519	4.925505e-06	1.798983e+00	
520	4.935505e-06	1.798981e+00	
521	4.945505e-06	1.798983e+00	
522	4.955505e-06	1.798981e+00	
523	4.965505e-06	1.798983e+00	
524	4.975505e-06	1.798981e+00	
525	4.985505e-06	1.798983e+00	
526	4.995505e-06	1.798981e+00	
527	5.005505e-06	1.798983e+00	
528	5.010000e-06	1.798981e+00	
529	5.010553e-06	1.798921e+00	
530	5.011659e-06	1.799480e+00	
531	5.013872e-06	1.801133e+00	
532	5.017524e-06	1.804199e+00	
533	5.020000e-06	1.803925e+00	
534	5.020373e-06	1.803622e+00	
535	5.021118e-06	1.803291e+00	
536	5.022608e-06	1.802879e+00	
537	5.025588e-06	1.802213e+00	
538	5.031548e-06	1.801925e+00	
539	5.040412e-06	1.802186e+00	
540	5.050412e-06	1.802676e+00	
541	5.060412e-06	1.802820e+00	
542	5.070412e-06	1.801584e+00	
543	5.080412e-06	1.798948e+00	
544	5.090412e-06	1.796465e+00	
545	5.100412e-06	1.793856e+00	
546	5.110412e-06	1.791054e+00	
547	5.120412e-06	1.788009e+00	
548	5.130412e-06	1.784530e+00	
549	5.140412e-06	1.780572e+00	
550	5.150412e-06	1.776098e+00	
551	5.160412e-06	1.771047e+00	
552	5.170412e-06	1.765500e+00	
553	5.180412e-06	1.759239e+00	
554	5.190412e-06	1.751932e+00	
555	5.200412e-06	1.742940e+00	
556	5.210412e-06	1.731448e+00	
557	5.220412e-06	1.715841e+00	
558	5.230412e-06	1.693119e+00	
559	5.240412e-06	1.658817e+00	
560	5.250412e-06	1.609224e+00	
561	5.260412e-06	1.545678e+00	
562	5.270412e-06	1.474367e+00	
563	5.280412e-06	1.402164e+00	
564	5.290412e-06	1.334031e+00	
565	5.300412e-06	1.272741e+00	
566	5.310412e-06	1.219391e+00	
567	5.320412e-06	1.174020e+00	
568	5.330412e-06	1.136047e+00	
569	5.340412e-06	1.104600e+00	
570	5.350412e-06	1.078736e+00	
571	5.360412e-06	1.057553e+00	
572	5.370412e-06	1.040240e+00	
573	5.380412e-06	1.026105e+00	
574	5.390412e-06	1.014566e+00	
575	5.400412e-06	1.005147e+00	
576	5.410412e-06	9.974576e-01	

Index   time            v(bgr)          
--------------------------------------------------------------------------------
577	5.420412e-06	9.911811e-01	
578	5.430412e-06	9.860597e-01	
579	5.440412e-06	9.818850e-01	
580	5.450412e-06	9.784857e-01	
581	5.460412e-06	9.757235e-01	
582	5.470412e-06	9.734833e-01	
583	5.480412e-06	9.716722e-01	
584	5.490412e-06	9.702120e-01	
585	5.500412e-06	9.690399e-01	
586	5.510412e-06	9.681024e-01	
587	5.520412e-06	9.673569e-01	
588	5.530412e-06	9.667665e-01	
589	5.540412e-06	9.663027e-01	
590	5.550412e-06	9.659400e-01	
591	5.560412e-06	9.656595e-01	
592	5.570412e-06	9.654437e-01	
593	5.580412e-06	9.652802e-01	
594	5.590412e-06	9.651571e-01	
595	5.600412e-06	9.650667e-01	
596	5.610412e-06	9.650007e-01	
597	5.620412e-06	9.649544e-01	
598	5.630412e-06	9.649223e-01	
599	5.640412e-06	9.649019e-01	
600	5.650412e-06	9.648891e-01	
601	5.660412e-06	9.648829e-01	
602	5.670412e-06	9.648805e-01	
603	5.680412e-06	9.648815e-01	
604	5.690412e-06	9.648840e-01	
605	5.700412e-06	9.648883e-01	
606	5.710412e-06	9.648927e-01	
607	5.720412e-06	9.648980e-01	
608	5.730412e-06	9.649027e-01	
609	5.740412e-06	9.649077e-01	
610	5.750412e-06	9.649119e-01	
611	5.760412e-06	9.649164e-01	
612	5.770412e-06	9.649198e-01	
613	5.780412e-06	9.649234e-01	
614	5.790412e-06	9.649260e-01	
615	5.800412e-06	9.649289e-01	
616	5.810412e-06	9.649308e-01	
617	5.820412e-06	9.649329e-01	
618	5.830412e-06	9.649342e-01	
619	5.840412e-06	9.649359e-01	
620	5.850412e-06	9.649367e-01	
621	5.860412e-06	9.649379e-01	
622	5.870412e-06	9.649384e-01	
623	5.880412e-06	9.649393e-01	
624	5.890412e-06	9.649395e-01	
625	5.900412e-06	9.649402e-01	
626	5.910412e-06	9.649403e-01	
627	5.920412e-06	9.649408e-01	
628	5.930412e-06	9.649408e-01	
629	5.940412e-06	9.649412e-01	
630	5.950412e-06	9.649411e-01	
631	5.960412e-06	9.649415e-01	
632	5.970412e-06	9.649412e-01	
633	5.980412e-06	9.649416e-01	
634	5.990412e-06	9.649413e-01	

Index   time            v(bgr)          
--------------------------------------------------------------------------------
635	6.000412e-06	9.649417e-01	
636	6.010412e-06	9.649414e-01	
637	6.020412e-06	9.649417e-01	
638	6.030412e-06	9.649414e-01	
639	6.040412e-06	9.649417e-01	
640	6.050412e-06	9.649414e-01	
641	6.060412e-06	9.649417e-01	
642	6.070412e-06	9.649414e-01	
643	6.080412e-06	9.649417e-01	
644	6.090412e-06	9.649414e-01	
645	6.100412e-06	9.649417e-01	
646	6.110412e-06	9.649414e-01	
647	6.120412e-06	9.649417e-01	
648	6.130412e-06	9.649414e-01	
649	6.140412e-06	9.649417e-01	
650	6.150412e-06	9.649414e-01	
651	6.160412e-06	9.649417e-01	
652	6.170412e-06	9.649414e-01	
653	6.180412e-06	9.649417e-01	
654	6.190412e-06	9.649414e-01	
655	6.200412e-06	9.649417e-01	
656	6.210412e-06	9.649414e-01	
657	6.220412e-06	9.649417e-01	
658	6.230412e-06	9.649414e-01	
659	6.240412e-06	9.649417e-01	
660	6.250412e-06	9.649414e-01	
661	6.260412e-06	9.649417e-01	
662	6.270412e-06	9.649414e-01	
663	6.280412e-06	9.649417e-01	
664	6.290412e-06	9.649414e-01	
665	6.300412e-06	9.649417e-01	
666	6.310412e-06	9.649414e-01	
667	6.320412e-06	9.649417e-01	
668	6.330412e-06	9.649414e-01	
669	6.340412e-06	9.649417e-01	
670	6.350412e-06	9.649414e-01	
671	6.360412e-06	9.649417e-01	
672	6.370412e-06	9.649414e-01	
673	6.380412e-06	9.649417e-01	
674	6.390412e-06	9.649414e-01	
675	6.400412e-06	9.649417e-01	
676	6.410412e-06	9.649414e-01	
677	6.420412e-06	9.649417e-01	
678	6.430412e-06	9.649414e-01	
679	6.440412e-06	9.649417e-01	
680	6.450412e-06	9.649414e-01	
681	6.460412e-06	9.649417e-01	
682	6.470412e-06	9.649414e-01	
683	6.480412e-06	9.649417e-01	
684	6.490412e-06	9.649414e-01	
685	6.500412e-06	9.649417e-01	
686	6.510412e-06	9.649414e-01	
687	6.520412e-06	9.649417e-01	
688	6.530412e-06	9.649414e-01	
689	6.540412e-06	9.649417e-01	
690	6.550412e-06	9.649414e-01	
691	6.560412e-06	9.649417e-01	
692	6.570412e-06	9.649414e-01	

Index   time            v(bgr)          
--------------------------------------------------------------------------------
693	6.580412e-06	9.649417e-01	
694	6.590412e-06	9.649414e-01	
695	6.600412e-06	9.649417e-01	
696	6.610412e-06	9.649414e-01	
697	6.620412e-06	9.649417e-01	
698	6.630412e-06	9.649414e-01	
699	6.640412e-06	9.649417e-01	
700	6.650412e-06	9.649414e-01	
701	6.660412e-06	9.649417e-01	
702	6.670412e-06	9.649414e-01	
703	6.680412e-06	9.649417e-01	
704	6.690412e-06	9.649414e-01	
705	6.700412e-06	9.649417e-01	
706	6.710412e-06	9.649414e-01	
707	6.720412e-06	9.649417e-01	
708	6.730412e-06	9.649414e-01	
709	6.740412e-06	9.649417e-01	
710	6.750412e-06	9.649414e-01	
711	6.760412e-06	9.649417e-01	
712	6.770412e-06	9.649414e-01	
713	6.780412e-06	9.649417e-01	
714	6.790412e-06	9.649414e-01	
715	6.800412e-06	9.649417e-01	
716	6.810412e-06	9.649414e-01	
717	6.820412e-06	9.649417e-01	
718	6.830412e-06	9.649414e-01	
719	6.840412e-06	9.649417e-01	
720	6.850412e-06	9.649414e-01	
721	6.860412e-06	9.649417e-01	
722	6.870412e-06	9.649414e-01	
723	6.880412e-06	9.649417e-01	
724	6.890412e-06	9.649414e-01	
725	6.900412e-06	9.649417e-01	
726	6.910412e-06	9.649414e-01	
727	6.920412e-06	9.649417e-01	
728	6.930412e-06	9.649414e-01	
729	6.940412e-06	9.649417e-01	
730	6.950412e-06	9.649414e-01	
731	6.960412e-06	9.649417e-01	
732	6.970412e-06	9.649414e-01	
733	6.980412e-06	9.649417e-01	
734	6.990412e-06	9.649414e-01	
735	7.000412e-06	9.649417e-01	
736	7.010412e-06	9.649414e-01	
737	7.020412e-06	9.649417e-01	
738	7.030412e-06	9.649414e-01	
739	7.040412e-06	9.649417e-01	
740	7.050412e-06	9.649414e-01	
741	7.060412e-06	9.649417e-01	
742	7.070412e-06	9.649414e-01	
743	7.080412e-06	9.649417e-01	
744	7.090412e-06	9.649414e-01	
745	7.100412e-06	9.649417e-01	
746	7.110412e-06	9.649414e-01	
747	7.120412e-06	9.649417e-01	
748	7.130412e-06	9.649414e-01	
749	7.140412e-06	9.649417e-01	
750	7.150412e-06	9.649414e-01	

Index   time            v(bgr)          
--------------------------------------------------------------------------------
751	7.160412e-06	9.649417e-01	
752	7.170412e-06	9.649414e-01	
753	7.180412e-06	9.649417e-01	
754	7.190412e-06	9.649414e-01	
755	7.200412e-06	9.649417e-01	
756	7.210412e-06	9.649414e-01	
757	7.220412e-06	9.649417e-01	
758	7.230412e-06	9.649414e-01	
759	7.240412e-06	9.649417e-01	
760	7.250412e-06	9.649414e-01	
761	7.260412e-06	9.649417e-01	
762	7.270412e-06	9.649414e-01	
763	7.280412e-06	9.649417e-01	
764	7.290412e-06	9.649414e-01	
765	7.300412e-06	9.649417e-01	
766	7.310412e-06	9.649414e-01	
767	7.320412e-06	9.649417e-01	
768	7.330412e-06	9.649414e-01	
769	7.340412e-06	9.649417e-01	
770	7.350412e-06	9.649414e-01	
771	7.360412e-06	9.649417e-01	
772	7.370412e-06	9.649414e-01	
773	7.380412e-06	9.649417e-01	
774	7.390412e-06	9.649414e-01	
775	7.400412e-06	9.649417e-01	
776	7.410412e-06	9.649414e-01	
777	7.420412e-06	9.649417e-01	
778	7.430412e-06	9.649414e-01	
779	7.440412e-06	9.649417e-01	
780	7.450412e-06	9.649414e-01	
781	7.460412e-06	9.649417e-01	
782	7.470412e-06	9.649414e-01	
783	7.480412e-06	9.649417e-01	
784	7.490412e-06	9.649414e-01	
785	7.500412e-06	9.649417e-01	
786	7.510412e-06	9.649414e-01	
787	7.520412e-06	9.649417e-01	
788	7.530412e-06	9.649414e-01	
789	7.540412e-06	9.649417e-01	
790	7.550412e-06	9.649414e-01	
791	7.560412e-06	9.649417e-01	
792	7.570412e-06	9.649414e-01	
793	7.580412e-06	9.649417e-01	
794	7.590412e-06	9.649414e-01	
795	7.600412e-06	9.649417e-01	
796	7.610412e-06	9.649414e-01	
797	7.620412e-06	9.649417e-01	
798	7.630412e-06	9.649414e-01	
799	7.640412e-06	9.649417e-01	
800	7.650412e-06	9.649414e-01	
801	7.660412e-06	9.649417e-01	
802	7.670412e-06	9.649414e-01	
803	7.680412e-06	9.649417e-01	
804	7.690412e-06	9.649414e-01	
805	7.700412e-06	9.649417e-01	
806	7.710412e-06	9.649414e-01	
807	7.720412e-06	9.649417e-01	
808	7.730412e-06	9.649414e-01	

Index   time            v(bgr)          
--------------------------------------------------------------------------------
809	7.740412e-06	9.649417e-01	
810	7.750412e-06	9.649414e-01	
811	7.760412e-06	9.649417e-01	
812	7.770412e-06	9.649414e-01	
813	7.780412e-06	9.649417e-01	
814	7.790412e-06	9.649414e-01	
815	7.800412e-06	9.649417e-01	
816	7.810412e-06	9.649414e-01	
817	7.820412e-06	9.649417e-01	
818	7.830412e-06	9.649414e-01	
819	7.840412e-06	9.649417e-01	
820	7.850412e-06	9.649414e-01	
821	7.860412e-06	9.649417e-01	
822	7.870412e-06	9.649414e-01	
823	7.880412e-06	9.649417e-01	
824	7.890412e-06	9.649414e-01	
825	7.900412e-06	9.649417e-01	
826	7.910412e-06	9.649414e-01	
827	7.920412e-06	9.649417e-01	
828	7.930412e-06	9.649414e-01	
829	7.940412e-06	9.649417e-01	
830	7.950412e-06	9.649414e-01	
831	7.960412e-06	9.649417e-01	
832	7.970412e-06	9.649414e-01	
833	7.980412e-06	9.649417e-01	
834	7.990412e-06	9.649414e-01	
835	8.000412e-06	9.649417e-01	
836	8.010412e-06	9.649414e-01	
837	8.020412e-06	9.649417e-01	
838	8.030412e-06	9.649414e-01	
839	8.040412e-06	9.649417e-01	
840	8.050412e-06	9.649414e-01	
841	8.060412e-06	9.649417e-01	
842	8.070412e-06	9.649414e-01	
843	8.080412e-06	9.649417e-01	
844	8.090412e-06	9.649414e-01	
845	8.100412e-06	9.649417e-01	
846	8.110412e-06	9.649414e-01	
847	8.120412e-06	9.649417e-01	
848	8.130412e-06	9.649414e-01	
849	8.140412e-06	9.649417e-01	
850	8.150412e-06	9.649414e-01	
851	8.160412e-06	9.649417e-01	
852	8.170412e-06	9.649414e-01	
853	8.180412e-06	9.649417e-01	
854	8.190412e-06	9.649414e-01	
855	8.200412e-06	9.649417e-01	
856	8.210412e-06	9.649414e-01	
857	8.220412e-06	9.649417e-01	
858	8.230412e-06	9.649414e-01	
859	8.240412e-06	9.649417e-01	
860	8.250412e-06	9.649414e-01	
861	8.260412e-06	9.649417e-01	
862	8.270412e-06	9.649414e-01	
863	8.280412e-06	9.649417e-01	
864	8.290412e-06	9.649414e-01	
865	8.300412e-06	9.649417e-01	
866	8.310412e-06	9.649414e-01	

Index   time            v(bgr)          
--------------------------------------------------------------------------------
867	8.320412e-06	9.649417e-01	
868	8.330412e-06	9.649414e-01	
869	8.340412e-06	9.649417e-01	
870	8.350412e-06	9.649414e-01	
871	8.360412e-06	9.649417e-01	
872	8.370412e-06	9.649414e-01	
873	8.380412e-06	9.649417e-01	
874	8.390412e-06	9.649414e-01	
875	8.400412e-06	9.649417e-01	
876	8.410412e-06	9.649414e-01	
877	8.420412e-06	9.649417e-01	
878	8.430412e-06	9.649414e-01	
879	8.440412e-06	9.649417e-01	
880	8.450412e-06	9.649414e-01	
881	8.460412e-06	9.649417e-01	
882	8.470412e-06	9.649414e-01	
883	8.480412e-06	9.649417e-01	
884	8.490412e-06	9.649414e-01	
885	8.500412e-06	9.649417e-01	
886	8.510412e-06	9.649414e-01	
887	8.520412e-06	9.649417e-01	
888	8.530412e-06	9.649414e-01	
889	8.540412e-06	9.649417e-01	
890	8.550412e-06	9.649414e-01	
891	8.560412e-06	9.649417e-01	
892	8.570412e-06	9.649414e-01	
893	8.580412e-06	9.649417e-01	
894	8.590412e-06	9.649414e-01	
895	8.600412e-06	9.649417e-01	
896	8.610412e-06	9.649414e-01	
897	8.620412e-06	9.649417e-01	
898	8.630412e-06	9.649414e-01	
899	8.640412e-06	9.649417e-01	
900	8.650412e-06	9.649414e-01	
901	8.660412e-06	9.649417e-01	
902	8.670412e-06	9.649414e-01	
903	8.680412e-06	9.649417e-01	
904	8.690412e-06	9.649414e-01	
905	8.700412e-06	9.649417e-01	
906	8.710412e-06	9.649414e-01	
907	8.720412e-06	9.649417e-01	
908	8.730412e-06	9.649414e-01	
909	8.740412e-06	9.649417e-01	
910	8.750412e-06	9.649414e-01	
911	8.760412e-06	9.649417e-01	
912	8.770412e-06	9.649414e-01	
913	8.780412e-06	9.649417e-01	
914	8.790412e-06	9.649414e-01	
915	8.800412e-06	9.649417e-01	
916	8.810412e-06	9.649414e-01	
917	8.820412e-06	9.649417e-01	
918	8.830412e-06	9.649414e-01	
919	8.840412e-06	9.649417e-01	
920	8.850412e-06	9.649414e-01	
921	8.860412e-06	9.649417e-01	
922	8.870412e-06	9.649414e-01	
923	8.880412e-06	9.649417e-01	
924	8.890412e-06	9.649414e-01	

Index   time            v(bgr)          
--------------------------------------------------------------------------------
925	8.900412e-06	9.649417e-01	
926	8.910412e-06	9.649414e-01	
927	8.920412e-06	9.649417e-01	
928	8.930412e-06	9.649414e-01	
929	8.940412e-06	9.649417e-01	
930	8.950412e-06	9.649414e-01	
931	8.960412e-06	9.649417e-01	
932	8.970412e-06	9.649414e-01	
933	8.980412e-06	9.649417e-01	
934	8.990412e-06	9.649414e-01	
935	9.000412e-06	9.649417e-01	
936	9.010412e-06	9.649414e-01	
937	9.020412e-06	9.649417e-01	
938	9.030412e-06	9.649414e-01	
939	9.040412e-06	9.649417e-01	
940	9.050412e-06	9.649414e-01	
941	9.060412e-06	9.649417e-01	
942	9.070412e-06	9.649414e-01	
943	9.080412e-06	9.649417e-01	
944	9.090412e-06	9.649414e-01	
945	9.100412e-06	9.649417e-01	
946	9.110412e-06	9.649414e-01	
947	9.120412e-06	9.649417e-01	
948	9.130412e-06	9.649414e-01	
949	9.140412e-06	9.649417e-01	
950	9.150412e-06	9.649414e-01	
951	9.160412e-06	9.649417e-01	
952	9.170412e-06	9.649414e-01	
953	9.180412e-06	9.649417e-01	
954	9.190412e-06	9.649414e-01	
955	9.200412e-06	9.649417e-01	
956	9.210412e-06	9.649414e-01	
957	9.220412e-06	9.649417e-01	
958	9.230412e-06	9.649414e-01	
959	9.240412e-06	9.649417e-01	
960	9.250412e-06	9.649414e-01	
961	9.260412e-06	9.649417e-01	
962	9.270412e-06	9.649414e-01	
963	9.280412e-06	9.649417e-01	
964	9.290412e-06	9.649414e-01	
965	9.300412e-06	9.649417e-01	
966	9.310412e-06	9.649414e-01	
967	9.320412e-06	9.649417e-01	
968	9.330412e-06	9.649414e-01	
969	9.340412e-06	9.649417e-01	
970	9.350412e-06	9.649414e-01	
971	9.360412e-06	9.649417e-01	
972	9.370412e-06	9.649414e-01	
973	9.380412e-06	9.649417e-01	
974	9.390412e-06	9.649414e-01	
975	9.400412e-06	9.649417e-01	
976	9.410412e-06	9.649414e-01	
977	9.420412e-06	9.649417e-01	
978	9.430412e-06	9.649414e-01	
979	9.440412e-06	9.649417e-01	
980	9.450412e-06	9.649414e-01	
981	9.460412e-06	9.649417e-01	
982	9.470412e-06	9.649414e-01	

Index   time            v(bgr)          
--------------------------------------------------------------------------------
983	9.480412e-06	9.649417e-01	
984	9.490412e-06	9.649414e-01	
985	9.500412e-06	9.649417e-01	
986	9.510412e-06	9.649414e-01	
987	9.520412e-06	9.649417e-01	
988	9.530412e-06	9.649414e-01	
989	9.540412e-06	9.649417e-01	
990	9.550412e-06	9.649414e-01	
991	9.560412e-06	9.649417e-01	
992	9.570412e-06	9.649414e-01	
993	9.580412e-06	9.649417e-01	
994	9.590412e-06	9.649414e-01	
995	9.600412e-06	9.649417e-01	
996	9.610412e-06	9.649414e-01	
997	9.620412e-06	9.649417e-01	
998	9.630412e-06	9.649414e-01	
999	9.640412e-06	9.649417e-01	
1000	9.650412e-06	9.649414e-01	
1001	9.660412e-06	9.649417e-01	
1002	9.670412e-06	9.649414e-01	
1003	9.680412e-06	9.649417e-01	
1004	9.690412e-06	9.649414e-01	
1005	9.700412e-06	9.649417e-01	
1006	9.710412e-06	9.649414e-01	
1007	9.720412e-06	9.649417e-01	
1008	9.730412e-06	9.649414e-01	
1009	9.740412e-06	9.649417e-01	
1010	9.750412e-06	9.649414e-01	
1011	9.760412e-06	9.649417e-01	
1012	9.770412e-06	9.649414e-01	
1013	9.780412e-06	9.649417e-01	
1014	9.790412e-06	9.649414e-01	
1015	9.800412e-06	9.649417e-01	
1016	9.810412e-06	9.649414e-01	
1017	9.820412e-06	9.649417e-01	
1018	9.830412e-06	9.649414e-01	
1019	9.840412e-06	9.649417e-01	
1020	9.850412e-06	9.649414e-01	
1021	9.860412e-06	9.649417e-01	
1022	9.870412e-06	9.649414e-01	
1023	9.880412e-06	9.649417e-01	
1024	9.890412e-06	9.649414e-01	
1025	9.900412e-06	9.649417e-01	
1026	9.910412e-06	9.649414e-01	
1027	9.920412e-06	9.649417e-01	
1028	9.930412e-06	9.649414e-01	
1029	9.940412e-06	9.649417e-01	
1030	9.950412e-06	9.649414e-01	
1031	9.960412e-06	9.649417e-01	
1032	9.970412e-06	9.649414e-01	
1033	9.980412e-06	9.649417e-01	
1034	9.990412e-06	9.649414e-01	
1035	1.000041e-05	9.649417e-01	
1036	1.001041e-05	9.649414e-01	
1037	1.002041e-05	9.649417e-01	
1038	1.003041e-05	9.649414e-01	
1039	1.004041e-05	9.649417e-01	
1040	1.005041e-05	9.649414e-01	

Index   time            v(bgr)          
--------------------------------------------------------------------------------
1041	1.006041e-05	9.649417e-01	
1042	1.007041e-05	9.649414e-01	
1043	1.008041e-05	9.649417e-01	
1044	1.009041e-05	9.649414e-01	
1045	1.010041e-05	9.649417e-01	
1046	1.011041e-05	9.649414e-01	
1047	1.012041e-05	9.649417e-01	
1048	1.013041e-05	9.649414e-01	
1049	1.014041e-05	9.649417e-01	
1050	1.015041e-05	9.649414e-01	
1051	1.016041e-05	9.649417e-01	
1052	1.017041e-05	9.649414e-01	
1053	1.018041e-05	9.649417e-01	
1054	1.019041e-05	9.649414e-01	
1055	1.020041e-05	9.649417e-01	
1056	1.021041e-05	9.649414e-01	
1057	1.022041e-05	9.649417e-01	
1058	1.023041e-05	9.649414e-01	
1059	1.024041e-05	9.649417e-01	
1060	1.025041e-05	9.649414e-01	
1061	1.026041e-05	9.649417e-01	
1062	1.027041e-05	9.649414e-01	
1063	1.028041e-05	9.649417e-01	
1064	1.029041e-05	9.649414e-01	
1065	1.030041e-05	9.649417e-01	
1066	1.031041e-05	9.649414e-01	
1067	1.032041e-05	9.649417e-01	
1068	1.033041e-05	9.649414e-01	
1069	1.034041e-05	9.649417e-01	
1070	1.035041e-05	9.649414e-01	
1071	1.036041e-05	9.649417e-01	
1072	1.037041e-05	9.649414e-01	
1073	1.038041e-05	9.649417e-01	
1074	1.039041e-05	9.649414e-01	
1075	1.040041e-05	9.649417e-01	
1076	1.041041e-05	9.649414e-01	
1077	1.042041e-05	9.649417e-01	
1078	1.043041e-05	9.649414e-01	
1079	1.044041e-05	9.649417e-01	
1080	1.045041e-05	9.649414e-01	
1081	1.046041e-05	9.649417e-01	
1082	1.047041e-05	9.649414e-01	
1083	1.048041e-05	9.649417e-01	
1084	1.049041e-05	9.649414e-01	
1085	1.050041e-05	9.649417e-01	
1086	1.051041e-05	9.649414e-01	
1087	1.052041e-05	9.649417e-01	
1088	1.053041e-05	9.649414e-01	
1089	1.054041e-05	9.649417e-01	
1090	1.055041e-05	9.649414e-01	
1091	1.056041e-05	9.649417e-01	
1092	1.057041e-05	9.649414e-01	
1093	1.058041e-05	9.649417e-01	
1094	1.059041e-05	9.649414e-01	
1095	1.060041e-05	9.649417e-01	
1096	1.061041e-05	9.649414e-01	
1097	1.062041e-05	9.649417e-01	
1098	1.063041e-05	9.649414e-01	

Index   time            v(bgr)          
--------------------------------------------------------------------------------
1099	1.064041e-05	9.649417e-01	
1100	1.065041e-05	9.649414e-01	
1101	1.066041e-05	9.649417e-01	
1102	1.067041e-05	9.649414e-01	
1103	1.068041e-05	9.649417e-01	
1104	1.069041e-05	9.649414e-01	
1105	1.070041e-05	9.649417e-01	
1106	1.071041e-05	9.649414e-01	
1107	1.072041e-05	9.649417e-01	
1108	1.073041e-05	9.649414e-01	
1109	1.074041e-05	9.649417e-01	
1110	1.075041e-05	9.649414e-01	
1111	1.076041e-05	9.649417e-01	
1112	1.077041e-05	9.649414e-01	
1113	1.078041e-05	9.649417e-01	
1114	1.079041e-05	9.649414e-01	
1115	1.080041e-05	9.649417e-01	
1116	1.081041e-05	9.649414e-01	
1117	1.082041e-05	9.649417e-01	
1118	1.083041e-05	9.649414e-01	
1119	1.084041e-05	9.649417e-01	
1120	1.085041e-05	9.649414e-01	
1121	1.086041e-05	9.649417e-01	
1122	1.087041e-05	9.649414e-01	
1123	1.088041e-05	9.649417e-01	
1124	1.089041e-05	9.649414e-01	
1125	1.090041e-05	9.649417e-01	
1126	1.091041e-05	9.649414e-01	
1127	1.092041e-05	9.649417e-01	
1128	1.093041e-05	9.649414e-01	
1129	1.094041e-05	9.649417e-01	
1130	1.095041e-05	9.649414e-01	
1131	1.096041e-05	9.649417e-01	
1132	1.097041e-05	9.649414e-01	
1133	1.098041e-05	9.649417e-01	
1134	1.099041e-05	9.649414e-01	
1135	1.100041e-05	9.649417e-01	
1136	1.101041e-05	9.649414e-01	
1137	1.102041e-05	9.649417e-01	
1138	1.103041e-05	9.649414e-01	
1139	1.104041e-05	9.649417e-01	
1140	1.105041e-05	9.649414e-01	
1141	1.106041e-05	9.649417e-01	
1142	1.107041e-05	9.649414e-01	
1143	1.108041e-05	9.649417e-01	
1144	1.109041e-05	9.649414e-01	
1145	1.110041e-05	9.649417e-01	
1146	1.111041e-05	9.649414e-01	
1147	1.112041e-05	9.649417e-01	
1148	1.113041e-05	9.649414e-01	
1149	1.114041e-05	9.649417e-01	
1150	1.115041e-05	9.649414e-01	
1151	1.116041e-05	9.649417e-01	
1152	1.117041e-05	9.649414e-01	
1153	1.118041e-05	9.649417e-01	
1154	1.119041e-05	9.649414e-01	
1155	1.120041e-05	9.649417e-01	
1156	1.121041e-05	9.649414e-01	

Index   time            v(bgr)          
--------------------------------------------------------------------------------
1157	1.122041e-05	9.649417e-01	
1158	1.123041e-05	9.649414e-01	
1159	1.124041e-05	9.649417e-01	
1160	1.125041e-05	9.649414e-01	
1161	1.126041e-05	9.649417e-01	
1162	1.127041e-05	9.649414e-01	
1163	1.128041e-05	9.649417e-01	
1164	1.129041e-05	9.649414e-01	
1165	1.130041e-05	9.649417e-01	
1166	1.131041e-05	9.649414e-01	
1167	1.132041e-05	9.649417e-01	
1168	1.133041e-05	9.649414e-01	
1169	1.134041e-05	9.649417e-01	
1170	1.135041e-05	9.649414e-01	
1171	1.136041e-05	9.649417e-01	
1172	1.137041e-05	9.649414e-01	
1173	1.138041e-05	9.649417e-01	
1174	1.139041e-05	9.649414e-01	
1175	1.140041e-05	9.649417e-01	
1176	1.141041e-05	9.649414e-01	
1177	1.142041e-05	9.649417e-01	
1178	1.143041e-05	9.649414e-01	
1179	1.144041e-05	9.649417e-01	
1180	1.145041e-05	9.649414e-01	
1181	1.146041e-05	9.649417e-01	
1182	1.147041e-05	9.649414e-01	
1183	1.148041e-05	9.649417e-01	
1184	1.149041e-05	9.649414e-01	
1185	1.150041e-05	9.649417e-01	
1186	1.151041e-05	9.649414e-01	
1187	1.152041e-05	9.649417e-01	
1188	1.153041e-05	9.649414e-01	
1189	1.154041e-05	9.649417e-01	
1190	1.155041e-05	9.649414e-01	
1191	1.156041e-05	9.649417e-01	
1192	1.157041e-05	9.649414e-01	
1193	1.158041e-05	9.649417e-01	
1194	1.159041e-05	9.649414e-01	
1195	1.160041e-05	9.649417e-01	
1196	1.161041e-05	9.649414e-01	
1197	1.162041e-05	9.649417e-01	
1198	1.163041e-05	9.649414e-01	
1199	1.164041e-05	9.649417e-01	
1200	1.165041e-05	9.649414e-01	
1201	1.166041e-05	9.649417e-01	
1202	1.167041e-05	9.649414e-01	
1203	1.168041e-05	9.649417e-01	
1204	1.169041e-05	9.649414e-01	
1205	1.170041e-05	9.649417e-01	
1206	1.171041e-05	9.649414e-01	
1207	1.172041e-05	9.649417e-01	
1208	1.173041e-05	9.649414e-01	
1209	1.174041e-05	9.649417e-01	
1210	1.175041e-05	9.649414e-01	
1211	1.176041e-05	9.649417e-01	
1212	1.177041e-05	9.649414e-01	
1213	1.178041e-05	9.649417e-01	
1214	1.179041e-05	9.649414e-01	

Index   time            v(bgr)          
--------------------------------------------------------------------------------
1215	1.180041e-05	9.649417e-01	
1216	1.181041e-05	9.649414e-01	
1217	1.182041e-05	9.649417e-01	
1218	1.183041e-05	9.649414e-01	
1219	1.184041e-05	9.649417e-01	
1220	1.185041e-05	9.649414e-01	
1221	1.186041e-05	9.649417e-01	
1222	1.187041e-05	9.649414e-01	
1223	1.188041e-05	9.649417e-01	
1224	1.189041e-05	9.649414e-01	
1225	1.190041e-05	9.649417e-01	
1226	1.191041e-05	9.649414e-01	
1227	1.192041e-05	9.649417e-01	
1228	1.193041e-05	9.649414e-01	
1229	1.194041e-05	9.649417e-01	
1230	1.195041e-05	9.649414e-01	
1231	1.196041e-05	9.649417e-01	
1232	1.197041e-05	9.649414e-01	
1233	1.198041e-05	9.649417e-01	
1234	1.199041e-05	9.649414e-01	
1235	1.200041e-05	9.649417e-01	
1236	1.201041e-05	9.649414e-01	
1237	1.202041e-05	9.649417e-01	
1238	1.203041e-05	9.649414e-01	
1239	1.204041e-05	9.649417e-01	
1240	1.205041e-05	9.649414e-01	
1241	1.206041e-05	9.649417e-01	
1242	1.207041e-05	9.649414e-01	
1243	1.208041e-05	9.649417e-01	
1244	1.209041e-05	9.649414e-01	
1245	1.210041e-05	9.649417e-01	
1246	1.211041e-05	9.649414e-01	
1247	1.212041e-05	9.649417e-01	
1248	1.213041e-05	9.649414e-01	
1249	1.214041e-05	9.649417e-01	
1250	1.215041e-05	9.649414e-01	
1251	1.216041e-05	9.649417e-01	
1252	1.217041e-05	9.649414e-01	
1253	1.218041e-05	9.649417e-01	
1254	1.219041e-05	9.649414e-01	
1255	1.220041e-05	9.649417e-01	
1256	1.221041e-05	9.649414e-01	
1257	1.222041e-05	9.649417e-01	
1258	1.223041e-05	9.649414e-01	
1259	1.224041e-05	9.649417e-01	
1260	1.225041e-05	9.649414e-01	
1261	1.226041e-05	9.649417e-01	
1262	1.227041e-05	9.649414e-01	
1263	1.228041e-05	9.649417e-01	
1264	1.229041e-05	9.649414e-01	
1265	1.230041e-05	9.649417e-01	
1266	1.231041e-05	9.649414e-01	
1267	1.232041e-05	9.649417e-01	
1268	1.233041e-05	9.649414e-01	
1269	1.234041e-05	9.649417e-01	
1270	1.235041e-05	9.649414e-01	
1271	1.236041e-05	9.649417e-01	
1272	1.237041e-05	9.649414e-01	

Index   time            v(bgr)          
--------------------------------------------------------------------------------
1273	1.238041e-05	9.649417e-01	
1274	1.239041e-05	9.649414e-01	
1275	1.240041e-05	9.649417e-01	
1276	1.241041e-05	9.649414e-01	
1277	1.242041e-05	9.649417e-01	
1278	1.243041e-05	9.649414e-01	
1279	1.244041e-05	9.649417e-01	
1280	1.245041e-05	9.649414e-01	
1281	1.246041e-05	9.649417e-01	
1282	1.247041e-05	9.649414e-01	
1283	1.248041e-05	9.649417e-01	
1284	1.249041e-05	9.649414e-01	
1285	1.250041e-05	9.649417e-01	
1286	1.251041e-05	9.649414e-01	
1287	1.252041e-05	9.649417e-01	
1288	1.253041e-05	9.649414e-01	
1289	1.254041e-05	9.649417e-01	
1290	1.255041e-05	9.649414e-01	
1291	1.256041e-05	9.649417e-01	
1292	1.257041e-05	9.649414e-01	
1293	1.258041e-05	9.649417e-01	
1294	1.259041e-05	9.649414e-01	
1295	1.260041e-05	9.649417e-01	
1296	1.261041e-05	9.649414e-01	
1297	1.262041e-05	9.649417e-01	
1298	1.263041e-05	9.649414e-01	
1299	1.264041e-05	9.649417e-01	
1300	1.265041e-05	9.649414e-01	
1301	1.266041e-05	9.649417e-01	
1302	1.267041e-05	9.649414e-01	
1303	1.268041e-05	9.649417e-01	
1304	1.269041e-05	9.649414e-01	
1305	1.270041e-05	9.649417e-01	
1306	1.271041e-05	9.649414e-01	
1307	1.272041e-05	9.649417e-01	
1308	1.273041e-05	9.649414e-01	
1309	1.274041e-05	9.649417e-01	
1310	1.275041e-05	9.649414e-01	
1311	1.276041e-05	9.649417e-01	
1312	1.277041e-05	9.649414e-01	
1313	1.278041e-05	9.649417e-01	
1314	1.279041e-05	9.649414e-01	
1315	1.280041e-05	9.649417e-01	
1316	1.281041e-05	9.649414e-01	
1317	1.282041e-05	9.649417e-01	
1318	1.283041e-05	9.649414e-01	
1319	1.284041e-05	9.649417e-01	
1320	1.285041e-05	9.649414e-01	
1321	1.286041e-05	9.649417e-01	
1322	1.287041e-05	9.649414e-01	
1323	1.288041e-05	9.649417e-01	
1324	1.289041e-05	9.649414e-01	
1325	1.290041e-05	9.649417e-01	
1326	1.291041e-05	9.649414e-01	
1327	1.292041e-05	9.649417e-01	
1328	1.293041e-05	9.649414e-01	
1329	1.294041e-05	9.649417e-01	
1330	1.295041e-05	9.649414e-01	

Index   time            v(bgr)          
--------------------------------------------------------------------------------
1331	1.296041e-05	9.649417e-01	
1332	1.297041e-05	9.649414e-01	
1333	1.298041e-05	9.649417e-01	
1334	1.299041e-05	9.649414e-01	
1335	1.300041e-05	9.649417e-01	
1336	1.301041e-05	9.649414e-01	
1337	1.302041e-05	9.649417e-01	
1338	1.303041e-05	9.649414e-01	
1339	1.304041e-05	9.649417e-01	
1340	1.305041e-05	9.649414e-01	
1341	1.306041e-05	9.649417e-01	
1342	1.307041e-05	9.649414e-01	
1343	1.308041e-05	9.649417e-01	
1344	1.309041e-05	9.649414e-01	
1345	1.310041e-05	9.649417e-01	
1346	1.311041e-05	9.649414e-01	
1347	1.312041e-05	9.649417e-01	
1348	1.313041e-05	9.649414e-01	
1349	1.314041e-05	9.649417e-01	
1350	1.315041e-05	9.649414e-01	
1351	1.316041e-05	9.649417e-01	
1352	1.317041e-05	9.649414e-01	
1353	1.318041e-05	9.649417e-01	
1354	1.319041e-05	9.649414e-01	
1355	1.320041e-05	9.649417e-01	
1356	1.321041e-05	9.649414e-01	
1357	1.322041e-05	9.649417e-01	
1358	1.323041e-05	9.649414e-01	
1359	1.324041e-05	9.649417e-01	
1360	1.325041e-05	9.649414e-01	
1361	1.326041e-05	9.649417e-01	
1362	1.327041e-05	9.649414e-01	
1363	1.328041e-05	9.649417e-01	
1364	1.329041e-05	9.649414e-01	
1365	1.330041e-05	9.649417e-01	
1366	1.331041e-05	9.649414e-01	
1367	1.332041e-05	9.649417e-01	
1368	1.333041e-05	9.649414e-01	
1369	1.334041e-05	9.649417e-01	
1370	1.335041e-05	9.649414e-01	
1371	1.336041e-05	9.649417e-01	
1372	1.337041e-05	9.649414e-01	
1373	1.338041e-05	9.649417e-01	
1374	1.339041e-05	9.649414e-01	
1375	1.340041e-05	9.649417e-01	
1376	1.341041e-05	9.649414e-01	
1377	1.342041e-05	9.649417e-01	
1378	1.343041e-05	9.649414e-01	
1379	1.344041e-05	9.649417e-01	
1380	1.345041e-05	9.649414e-01	
1381	1.346041e-05	9.649417e-01	
1382	1.347041e-05	9.649414e-01	
1383	1.348041e-05	9.649417e-01	
1384	1.349041e-05	9.649414e-01	
1385	1.350041e-05	9.649417e-01	
1386	1.351041e-05	9.649414e-01	
1387	1.352041e-05	9.649417e-01	
1388	1.353041e-05	9.649414e-01	

Index   time            v(bgr)          
--------------------------------------------------------------------------------
1389	1.354041e-05	9.649417e-01	
1390	1.355041e-05	9.649414e-01	
1391	1.356041e-05	9.649417e-01	
1392	1.357041e-05	9.649414e-01	
1393	1.358041e-05	9.649417e-01	
1394	1.359041e-05	9.649414e-01	
1395	1.360041e-05	9.649417e-01	
1396	1.361041e-05	9.649414e-01	
1397	1.362041e-05	9.649417e-01	
1398	1.363041e-05	9.649414e-01	
1399	1.364041e-05	9.649417e-01	
1400	1.365041e-05	9.649414e-01	
1401	1.366041e-05	9.649417e-01	
1402	1.367041e-05	9.649414e-01	
1403	1.368041e-05	9.649417e-01	
1404	1.369041e-05	9.649414e-01	
1405	1.370041e-05	9.649417e-01	
1406	1.371041e-05	9.649414e-01	
1407	1.372041e-05	9.649417e-01	
1408	1.373041e-05	9.649414e-01	
1409	1.374041e-05	9.649417e-01	
1410	1.375041e-05	9.649414e-01	
1411	1.376041e-05	9.649417e-01	
1412	1.377041e-05	9.649414e-01	
1413	1.378041e-05	9.649417e-01	
1414	1.379041e-05	9.649414e-01	
1415	1.380041e-05	9.649417e-01	
1416	1.381041e-05	9.649414e-01	
1417	1.382041e-05	9.649417e-01	
1418	1.383041e-05	9.649414e-01	
1419	1.384041e-05	9.649417e-01	
1420	1.385041e-05	9.649414e-01	
1421	1.386041e-05	9.649417e-01	
1422	1.387041e-05	9.649414e-01	
1423	1.388041e-05	9.649417e-01	
1424	1.389041e-05	9.649414e-01	
1425	1.390041e-05	9.649417e-01	
1426	1.391041e-05	9.649414e-01	
1427	1.392041e-05	9.649417e-01	
1428	1.393041e-05	9.649414e-01	
1429	1.394041e-05	9.649417e-01	
1430	1.395041e-05	9.649414e-01	
1431	1.396041e-05	9.649417e-01	
1432	1.397041e-05	9.649414e-01	
1433	1.398041e-05	9.649417e-01	
1434	1.399041e-05	9.649414e-01	
1435	1.400041e-05	9.649417e-01	
1436	1.401041e-05	9.649414e-01	
1437	1.402041e-05	9.649417e-01	
1438	1.403041e-05	9.649414e-01	
1439	1.404041e-05	9.649417e-01	
1440	1.405041e-05	9.649414e-01	
1441	1.406041e-05	9.649417e-01	
1442	1.407041e-05	9.649414e-01	
1443	1.408041e-05	9.649417e-01	
1444	1.409041e-05	9.649414e-01	
1445	1.410041e-05	9.649417e-01	
1446	1.411041e-05	9.649414e-01	

Index   time            v(bgr)          
--------------------------------------------------------------------------------
1447	1.412041e-05	9.649417e-01	
1448	1.413041e-05	9.649414e-01	
1449	1.414041e-05	9.649417e-01	
1450	1.415041e-05	9.649414e-01	
1451	1.416041e-05	9.649417e-01	
1452	1.417041e-05	9.649414e-01	
1453	1.418041e-05	9.649417e-01	
1454	1.419041e-05	9.649414e-01	
1455	1.420041e-05	9.649417e-01	
1456	1.421041e-05	9.649414e-01	
1457	1.422041e-05	9.649417e-01	
1458	1.423041e-05	9.649414e-01	
1459	1.424041e-05	9.649417e-01	
1460	1.425041e-05	9.649414e-01	
1461	1.426041e-05	9.649417e-01	
1462	1.427041e-05	9.649414e-01	
1463	1.428041e-05	9.649417e-01	
1464	1.429041e-05	9.649414e-01	
1465	1.430041e-05	9.649417e-01	
1466	1.431041e-05	9.649414e-01	
1467	1.432041e-05	9.649417e-01	
1468	1.433041e-05	9.649414e-01	
1469	1.434041e-05	9.649417e-01	
1470	1.435041e-05	9.649414e-01	
1471	1.436041e-05	9.649417e-01	
1472	1.437041e-05	9.649414e-01	
1473	1.438041e-05	9.649417e-01	
1474	1.439041e-05	9.649414e-01	
1475	1.440041e-05	9.649417e-01	
1476	1.441041e-05	9.649414e-01	
1477	1.442041e-05	9.649417e-01	
1478	1.443041e-05	9.649414e-01	
1479	1.444041e-05	9.649417e-01	
1480	1.445041e-05	9.649414e-01	
1481	1.446041e-05	9.649417e-01	
1482	1.447041e-05	9.649414e-01	
1483	1.448041e-05	9.649417e-01	
1484	1.449041e-05	9.649414e-01	
1485	1.450041e-05	9.649417e-01	
1486	1.451041e-05	9.649414e-01	
1487	1.452041e-05	9.649417e-01	
1488	1.453041e-05	9.649414e-01	
1489	1.454041e-05	9.649417e-01	
1490	1.455041e-05	9.649414e-01	
1491	1.456041e-05	9.649417e-01	
1492	1.457041e-05	9.649414e-01	
1493	1.458041e-05	9.649417e-01	
1494	1.459041e-05	9.649414e-01	
1495	1.460041e-05	9.649417e-01	
1496	1.461041e-05	9.649414e-01	
1497	1.462041e-05	9.649417e-01	
1498	1.463041e-05	9.649414e-01	
1499	1.464041e-05	9.649417e-01	
1500	1.465041e-05	9.649414e-01	
1501	1.466041e-05	9.649417e-01	
1502	1.467041e-05	9.649414e-01	
1503	1.468041e-05	9.649417e-01	
1504	1.469041e-05	9.649414e-01	

Index   time            v(bgr)          
--------------------------------------------------------------------------------
1505	1.470041e-05	9.649417e-01	
1506	1.471041e-05	9.649414e-01	
1507	1.472041e-05	9.649417e-01	
1508	1.473041e-05	9.649414e-01	
1509	1.474041e-05	9.649417e-01	
1510	1.475041e-05	9.649414e-01	
1511	1.476041e-05	9.649417e-01	
1512	1.477041e-05	9.649414e-01	
1513	1.478041e-05	9.649417e-01	
1514	1.479041e-05	9.649414e-01	
1515	1.480041e-05	9.649417e-01	
1516	1.481041e-05	9.649414e-01	
1517	1.482041e-05	9.649417e-01	
1518	1.483041e-05	9.649414e-01	
1519	1.484041e-05	9.649417e-01	
1520	1.485041e-05	9.649414e-01	
1521	1.486041e-05	9.649417e-01	
1522	1.487041e-05	9.649414e-01	
1523	1.488041e-05	9.649417e-01	
1524	1.489041e-05	9.649414e-01	
1525	1.490041e-05	9.649417e-01	
1526	1.491041e-05	9.649414e-01	
1527	1.492041e-05	9.649417e-01	
1528	1.493041e-05	9.649414e-01	
1529	1.494041e-05	9.649417e-01	
1530	1.495041e-05	9.649414e-01	
1531	1.496041e-05	9.649417e-01	
1532	1.497041e-05	9.649414e-01	
1533	1.498041e-05	9.649417e-01	
1534	1.499041e-05	9.649414e-01	
1535	1.500041e-05	9.649417e-01	
1536	1.501041e-05	9.649414e-01	
1537	1.502041e-05	9.649417e-01	
1538	1.503041e-05	9.649414e-01	
1539	1.504041e-05	9.649417e-01	
1540	1.505041e-05	9.649414e-01	
1541	1.506041e-05	9.649417e-01	
1542	1.507041e-05	9.649414e-01	
1543	1.508041e-05	9.649417e-01	
1544	1.509041e-05	9.649414e-01	
1545	1.510041e-05	9.649417e-01	
1546	1.511041e-05	9.649414e-01	
1547	1.512041e-05	9.649417e-01	
1548	1.513041e-05	9.649414e-01	
1549	1.514041e-05	9.649417e-01	
1550	1.515041e-05	9.649414e-01	
1551	1.516041e-05	9.649417e-01	
1552	1.517041e-05	9.649414e-01	
1553	1.518041e-05	9.649417e-01	
1554	1.519041e-05	9.649414e-01	
1555	1.520041e-05	9.649417e-01	
1556	1.521041e-05	9.649414e-01	
1557	1.522041e-05	9.649417e-01	
1558	1.523041e-05	9.649414e-01	
1559	1.524041e-05	9.649417e-01	
1560	1.525041e-05	9.649414e-01	
1561	1.526041e-05	9.649417e-01	
1562	1.527041e-05	9.649414e-01	

Index   time            v(bgr)          
--------------------------------------------------------------------------------
1563	1.528041e-05	9.649417e-01	
1564	1.529041e-05	9.649414e-01	
1565	1.530041e-05	9.649417e-01	
1566	1.531041e-05	9.649414e-01	
1567	1.532041e-05	9.649417e-01	
1568	1.533041e-05	9.649414e-01	
1569	1.534041e-05	9.649417e-01	
1570	1.535041e-05	9.649414e-01	
1571	1.536041e-05	9.649417e-01	
1572	1.537041e-05	9.649414e-01	
1573	1.538041e-05	9.649417e-01	
1574	1.539041e-05	9.649414e-01	
1575	1.540041e-05	9.649417e-01	
1576	1.541041e-05	9.649414e-01	
1577	1.542041e-05	9.649417e-01	
1578	1.543041e-05	9.649414e-01	
1579	1.544041e-05	9.649417e-01	
1580	1.545041e-05	9.649414e-01	
1581	1.546041e-05	9.649417e-01	
1582	1.547041e-05	9.649414e-01	
1583	1.548041e-05	9.649417e-01	
1584	1.549041e-05	9.649414e-01	
1585	1.550041e-05	9.649417e-01	
1586	1.551041e-05	9.649414e-01	
1587	1.552041e-05	9.649417e-01	
1588	1.553041e-05	9.649414e-01	
1589	1.554041e-05	9.649417e-01	
1590	1.555041e-05	9.649414e-01	
1591	1.556041e-05	9.649417e-01	
1592	1.557041e-05	9.649414e-01	
1593	1.558041e-05	9.649417e-01	
1594	1.559041e-05	9.649414e-01	
1595	1.560041e-05	9.649417e-01	
1596	1.561041e-05	9.649414e-01	
1597	1.562041e-05	9.649417e-01	
1598	1.563041e-05	9.649414e-01	
1599	1.564041e-05	9.649417e-01	
1600	1.565041e-05	9.649414e-01	
1601	1.566041e-05	9.649417e-01	
1602	1.567041e-05	9.649414e-01	
1603	1.568041e-05	9.649417e-01	
1604	1.569041e-05	9.649414e-01	
1605	1.570041e-05	9.649417e-01	
1606	1.571041e-05	9.649414e-01	
1607	1.572041e-05	9.649417e-01	
1608	1.573041e-05	9.649414e-01	
1609	1.574041e-05	9.649417e-01	
1610	1.575041e-05	9.649414e-01	
1611	1.576041e-05	9.649417e-01	
1612	1.577041e-05	9.649414e-01	
1613	1.578041e-05	9.649417e-01	
1614	1.579041e-05	9.649414e-01	
1615	1.580041e-05	9.649417e-01	
1616	1.581041e-05	9.649414e-01	
1617	1.582041e-05	9.649417e-01	
1618	1.583041e-05	9.649414e-01	
1619	1.584041e-05	9.649417e-01	
1620	1.585041e-05	9.649414e-01	

Index   time            v(bgr)          
--------------------------------------------------------------------------------
1621	1.586041e-05	9.649417e-01	
1622	1.587041e-05	9.649414e-01	
1623	1.588041e-05	9.649417e-01	
1624	1.589041e-05	9.649414e-01	
1625	1.590041e-05	9.649417e-01	
1626	1.591041e-05	9.649414e-01	
1627	1.592041e-05	9.649417e-01	
1628	1.593041e-05	9.649414e-01	
1629	1.594041e-05	9.649417e-01	
1630	1.595041e-05	9.649414e-01	
1631	1.596041e-05	9.649417e-01	
1632	1.597041e-05	9.649414e-01	
1633	1.598041e-05	9.649417e-01	
1634	1.599041e-05	9.649414e-01	
1635	1.600041e-05	9.649417e-01	
1636	1.601041e-05	9.649414e-01	
1637	1.602041e-05	9.649417e-01	
1638	1.603041e-05	9.649414e-01	
1639	1.604041e-05	9.649417e-01	
1640	1.605041e-05	9.649414e-01	
1641	1.606041e-05	9.649417e-01	
1642	1.607041e-05	9.649414e-01	
1643	1.608041e-05	9.649417e-01	
1644	1.609041e-05	9.649414e-01	
1645	1.610041e-05	9.649417e-01	
1646	1.611041e-05	9.649414e-01	
1647	1.612041e-05	9.649417e-01	
1648	1.613041e-05	9.649414e-01	
1649	1.614041e-05	9.649417e-01	
1650	1.615041e-05	9.649414e-01	
1651	1.616041e-05	9.649417e-01	
1652	1.617041e-05	9.649414e-01	
1653	1.618041e-05	9.649417e-01	
1654	1.619041e-05	9.649414e-01	
1655	1.620041e-05	9.649417e-01	
1656	1.621041e-05	9.649414e-01	
1657	1.622041e-05	9.649417e-01	
1658	1.623041e-05	9.649414e-01	
1659	1.624041e-05	9.649417e-01	
1660	1.625041e-05	9.649414e-01	
1661	1.626041e-05	9.649417e-01	
1662	1.627041e-05	9.649414e-01	
1663	1.628041e-05	9.649417e-01	
1664	1.629041e-05	9.649414e-01	
1665	1.630041e-05	9.649417e-01	
1666	1.631041e-05	9.649414e-01	
1667	1.632041e-05	9.649417e-01	
1668	1.633041e-05	9.649414e-01	
1669	1.634041e-05	9.649417e-01	
1670	1.635041e-05	9.649414e-01	
1671	1.636041e-05	9.649417e-01	
1672	1.637041e-05	9.649414e-01	
1673	1.638041e-05	9.649417e-01	
1674	1.639041e-05	9.649414e-01	
1675	1.640041e-05	9.649417e-01	
1676	1.641041e-05	9.649414e-01	
1677	1.642041e-05	9.649417e-01	
1678	1.643041e-05	9.649414e-01	

Index   time            v(bgr)          
--------------------------------------------------------------------------------
1679	1.644041e-05	9.649417e-01	
1680	1.645041e-05	9.649414e-01	
1681	1.646041e-05	9.649417e-01	
1682	1.647041e-05	9.649414e-01	
1683	1.648041e-05	9.649417e-01	
1684	1.649041e-05	9.649414e-01	
1685	1.650041e-05	9.649417e-01	
1686	1.651041e-05	9.649414e-01	
1687	1.652041e-05	9.649417e-01	
1688	1.653041e-05	9.649414e-01	
1689	1.654041e-05	9.649417e-01	
1690	1.655041e-05	9.649414e-01	
1691	1.656041e-05	9.649417e-01	
1692	1.657041e-05	9.649414e-01	
1693	1.658041e-05	9.649417e-01	
1694	1.659041e-05	9.649414e-01	
1695	1.660041e-05	9.649417e-01	
1696	1.661041e-05	9.649414e-01	
1697	1.662041e-05	9.649417e-01	
1698	1.663041e-05	9.649414e-01	
1699	1.664041e-05	9.649417e-01	
1700	1.665041e-05	9.649414e-01	
1701	1.666041e-05	9.649417e-01	
1702	1.667041e-05	9.649414e-01	
1703	1.668041e-05	9.649417e-01	
1704	1.669041e-05	9.649414e-01	
1705	1.670041e-05	9.649417e-01	
1706	1.671041e-05	9.649414e-01	
1707	1.672041e-05	9.649417e-01	
1708	1.673041e-05	9.649414e-01	
1709	1.674041e-05	9.649417e-01	
1710	1.675041e-05	9.649414e-01	
1711	1.676041e-05	9.649417e-01	
1712	1.677041e-05	9.649414e-01	
1713	1.678041e-05	9.649417e-01	
1714	1.679041e-05	9.649414e-01	
1715	1.680041e-05	9.649417e-01	
1716	1.681041e-05	9.649414e-01	
1717	1.682041e-05	9.649417e-01	
1718	1.683041e-05	9.649414e-01	
1719	1.684041e-05	9.649417e-01	
1720	1.685041e-05	9.649414e-01	
1721	1.686041e-05	9.649417e-01	
1722	1.687041e-05	9.649414e-01	
1723	1.688041e-05	9.649417e-01	
1724	1.689041e-05	9.649414e-01	
1725	1.690041e-05	9.649417e-01	
1726	1.691041e-05	9.649414e-01	
1727	1.692041e-05	9.649417e-01	
1728	1.693041e-05	9.649414e-01	
1729	1.694041e-05	9.649417e-01	
1730	1.695041e-05	9.649414e-01	
1731	1.696041e-05	9.649417e-01	
1732	1.697041e-05	9.649414e-01	
1733	1.698041e-05	9.649417e-01	
1734	1.699041e-05	9.649414e-01	
1735	1.700041e-05	9.649417e-01	
1736	1.701041e-05	9.649414e-01	

Index   time            v(bgr)          
--------------------------------------------------------------------------------
1737	1.702041e-05	9.649417e-01	
1738	1.703041e-05	9.649414e-01	
1739	1.704041e-05	9.649417e-01	
1740	1.705041e-05	9.649414e-01	
1741	1.706041e-05	9.649417e-01	
1742	1.707041e-05	9.649414e-01	
1743	1.708041e-05	9.649417e-01	
1744	1.709041e-05	9.649414e-01	
1745	1.710041e-05	9.649417e-01	
1746	1.711041e-05	9.649414e-01	
1747	1.712041e-05	9.649417e-01	
1748	1.713041e-05	9.649414e-01	
1749	1.714041e-05	9.649417e-01	
1750	1.715041e-05	9.649414e-01	
1751	1.716041e-05	9.649417e-01	
1752	1.717041e-05	9.649414e-01	
1753	1.718041e-05	9.649417e-01	
1754	1.719041e-05	9.649414e-01	
1755	1.720041e-05	9.649417e-01	
1756	1.721041e-05	9.649414e-01	
1757	1.722041e-05	9.649417e-01	
1758	1.723041e-05	9.649414e-01	
1759	1.724041e-05	9.649417e-01	
1760	1.725041e-05	9.649414e-01	
1761	1.726041e-05	9.649417e-01	
1762	1.727041e-05	9.649414e-01	
1763	1.728041e-05	9.649417e-01	
1764	1.729041e-05	9.649414e-01	
1765	1.730041e-05	9.649417e-01	
1766	1.731041e-05	9.649414e-01	
1767	1.732041e-05	9.649417e-01	
1768	1.733041e-05	9.649414e-01	
1769	1.734041e-05	9.649417e-01	
1770	1.735041e-05	9.649414e-01	
1771	1.736041e-05	9.649417e-01	
1772	1.737041e-05	9.649414e-01	
1773	1.738041e-05	9.649417e-01	
1774	1.739041e-05	9.649414e-01	
1775	1.740041e-05	9.649417e-01	
1776	1.741041e-05	9.649414e-01	
1777	1.742041e-05	9.649417e-01	
1778	1.743041e-05	9.649414e-01	
1779	1.744041e-05	9.649417e-01	
1780	1.745041e-05	9.649414e-01	
1781	1.746041e-05	9.649417e-01	
1782	1.747041e-05	9.649414e-01	
1783	1.748041e-05	9.649417e-01	
1784	1.749041e-05	9.649414e-01	
1785	1.750041e-05	9.649417e-01	
1786	1.751041e-05	9.649414e-01	
1787	1.752041e-05	9.649417e-01	
1788	1.753041e-05	9.649414e-01	
1789	1.754041e-05	9.649417e-01	
1790	1.755041e-05	9.649414e-01	
1791	1.756041e-05	9.649417e-01	
1792	1.757041e-05	9.649414e-01	
1793	1.758041e-05	9.649417e-01	
1794	1.759041e-05	9.649414e-01	

Index   time            v(bgr)          
--------------------------------------------------------------------------------
1795	1.760041e-05	9.649417e-01	
1796	1.761041e-05	9.649414e-01	
1797	1.762041e-05	9.649417e-01	
1798	1.763041e-05	9.649414e-01	
1799	1.764041e-05	9.649417e-01	
1800	1.765041e-05	9.649414e-01	
1801	1.766041e-05	9.649417e-01	
1802	1.767041e-05	9.649414e-01	
1803	1.768041e-05	9.649417e-01	
1804	1.769041e-05	9.649414e-01	
1805	1.770041e-05	9.649417e-01	
1806	1.771041e-05	9.649414e-01	
1807	1.772041e-05	9.649417e-01	
1808	1.773041e-05	9.649414e-01	
1809	1.774041e-05	9.649417e-01	
1810	1.775041e-05	9.649414e-01	
1811	1.776041e-05	9.649417e-01	
1812	1.777041e-05	9.649414e-01	
1813	1.778041e-05	9.649417e-01	
1814	1.779041e-05	9.649414e-01	
1815	1.780041e-05	9.649417e-01	
1816	1.781041e-05	9.649414e-01	
1817	1.782041e-05	9.649417e-01	
1818	1.783041e-05	9.649414e-01	
1819	1.784041e-05	9.649417e-01	
1820	1.785041e-05	9.649414e-01	
1821	1.786041e-05	9.649417e-01	
1822	1.787041e-05	9.649414e-01	
1823	1.788041e-05	9.649417e-01	
1824	1.789041e-05	9.649414e-01	
1825	1.790041e-05	9.649417e-01	
1826	1.791041e-05	9.649414e-01	
1827	1.792041e-05	9.649417e-01	
1828	1.793041e-05	9.649414e-01	
1829	1.794041e-05	9.649417e-01	
1830	1.795041e-05	9.649414e-01	
1831	1.796041e-05	9.649417e-01	
1832	1.797041e-05	9.649414e-01	
1833	1.798041e-05	9.649417e-01	
1834	1.799041e-05	9.649414e-01	
1835	1.800041e-05	9.649417e-01	
1836	1.801041e-05	9.649414e-01	
1837	1.802041e-05	9.649417e-01	
1838	1.803041e-05	9.649414e-01	
1839	1.804041e-05	9.649417e-01	
1840	1.805041e-05	9.649414e-01	
1841	1.806041e-05	9.649417e-01	
1842	1.807041e-05	9.649414e-01	
1843	1.808041e-05	9.649417e-01	
1844	1.809041e-05	9.649414e-01	
1845	1.810041e-05	9.649417e-01	
1846	1.811041e-05	9.649414e-01	
1847	1.812041e-05	9.649417e-01	
1848	1.813041e-05	9.649414e-01	
1849	1.814041e-05	9.649417e-01	
1850	1.815041e-05	9.649414e-01	
1851	1.816041e-05	9.649417e-01	
1852	1.817041e-05	9.649414e-01	

Index   time            v(bgr)          
--------------------------------------------------------------------------------
1853	1.818041e-05	9.649417e-01	
1854	1.819041e-05	9.649414e-01	
1855	1.820041e-05	9.649417e-01	
1856	1.821041e-05	9.649414e-01	
1857	1.822041e-05	9.649417e-01	
1858	1.823041e-05	9.649414e-01	
1859	1.824041e-05	9.649417e-01	
1860	1.825041e-05	9.649414e-01	
1861	1.826041e-05	9.649417e-01	
1862	1.827041e-05	9.649414e-01	
1863	1.828041e-05	9.649417e-01	
1864	1.829041e-05	9.649414e-01	
1865	1.830041e-05	9.649417e-01	
1866	1.831041e-05	9.649414e-01	
1867	1.832041e-05	9.649417e-01	
1868	1.833041e-05	9.649414e-01	
1869	1.834041e-05	9.649417e-01	
1870	1.835041e-05	9.649414e-01	
1871	1.836041e-05	9.649417e-01	
1872	1.837041e-05	9.649414e-01	
1873	1.838041e-05	9.649417e-01	
1874	1.839041e-05	9.649414e-01	
1875	1.840041e-05	9.649417e-01	
1876	1.841041e-05	9.649414e-01	
1877	1.842041e-05	9.649417e-01	
1878	1.843041e-05	9.649414e-01	
1879	1.844041e-05	9.649417e-01	
1880	1.845041e-05	9.649414e-01	
1881	1.846041e-05	9.649417e-01	
1882	1.847041e-05	9.649414e-01	
1883	1.848041e-05	9.649417e-01	
1884	1.849041e-05	9.649414e-01	
1885	1.850041e-05	9.649417e-01	
1886	1.851041e-05	9.649414e-01	
1887	1.852041e-05	9.649417e-01	
1888	1.853041e-05	9.649414e-01	
1889	1.854041e-05	9.649417e-01	
1890	1.855041e-05	9.649414e-01	
1891	1.856041e-05	9.649417e-01	
1892	1.857041e-05	9.649414e-01	
1893	1.858041e-05	9.649417e-01	
1894	1.859041e-05	9.649414e-01	
1895	1.860041e-05	9.649417e-01	
1896	1.861041e-05	9.649414e-01	
1897	1.862041e-05	9.649417e-01	
1898	1.863041e-05	9.649414e-01	
1899	1.864041e-05	9.649417e-01	
1900	1.865041e-05	9.649414e-01	
1901	1.866041e-05	9.649417e-01	
1902	1.867041e-05	9.649414e-01	
1903	1.868041e-05	9.649417e-01	
1904	1.869041e-05	9.649414e-01	
1905	1.870041e-05	9.649417e-01	
1906	1.871041e-05	9.649414e-01	
1907	1.872041e-05	9.649417e-01	
1908	1.873041e-05	9.649414e-01	
1909	1.874041e-05	9.649417e-01	
1910	1.875041e-05	9.649414e-01	

Index   time            v(bgr)          
--------------------------------------------------------------------------------
1911	1.876041e-05	9.649417e-01	
1912	1.877041e-05	9.649414e-01	
1913	1.878041e-05	9.649417e-01	
1914	1.879041e-05	9.649414e-01	
1915	1.880041e-05	9.649417e-01	
1916	1.881041e-05	9.649414e-01	
1917	1.882041e-05	9.649417e-01	
1918	1.883041e-05	9.649414e-01	
1919	1.884041e-05	9.649417e-01	
1920	1.885041e-05	9.649414e-01	
1921	1.886041e-05	9.649417e-01	
1922	1.887041e-05	9.649414e-01	
1923	1.888041e-05	9.649417e-01	
1924	1.889041e-05	9.649414e-01	
1925	1.890041e-05	9.649417e-01	
1926	1.891041e-05	9.649414e-01	
1927	1.892041e-05	9.649417e-01	
1928	1.893041e-05	9.649414e-01	
1929	1.894041e-05	9.649417e-01	
1930	1.895041e-05	9.649414e-01	
1931	1.896041e-05	9.649417e-01	
1932	1.897041e-05	9.649414e-01	
1933	1.898041e-05	9.649417e-01	
1934	1.899041e-05	9.649414e-01	
1935	1.900041e-05	9.649417e-01	
1936	1.901041e-05	9.649414e-01	
1937	1.902041e-05	9.649417e-01	
1938	1.903041e-05	9.649414e-01	
1939	1.904041e-05	9.649417e-01	
1940	1.905041e-05	9.649414e-01	
1941	1.906041e-05	9.649417e-01	
1942	1.907041e-05	9.649414e-01	
1943	1.908041e-05	9.649417e-01	
1944	1.909041e-05	9.649414e-01	
1945	1.910041e-05	9.649417e-01	
1946	1.911041e-05	9.649414e-01	
1947	1.912041e-05	9.649417e-01	
1948	1.913041e-05	9.649414e-01	
1949	1.914041e-05	9.649417e-01	
1950	1.915041e-05	9.649414e-01	
1951	1.916041e-05	9.649417e-01	
1952	1.917041e-05	9.649414e-01	
1953	1.918041e-05	9.649417e-01	
1954	1.919041e-05	9.649414e-01	
1955	1.920041e-05	9.649417e-01	
1956	1.921041e-05	9.649414e-01	
1957	1.922041e-05	9.649417e-01	
1958	1.923041e-05	9.649414e-01	
1959	1.924041e-05	9.649417e-01	
1960	1.925041e-05	9.649414e-01	
1961	1.926041e-05	9.649417e-01	
1962	1.927041e-05	9.649414e-01	
1963	1.928041e-05	9.649417e-01	
1964	1.929041e-05	9.649414e-01	
1965	1.930041e-05	9.649417e-01	
1966	1.931041e-05	9.649414e-01	
1967	1.932041e-05	9.649417e-01	
1968	1.933041e-05	9.649414e-01	

Index   time            v(bgr)          
--------------------------------------------------------------------------------
1969	1.934041e-05	9.649417e-01	
1970	1.935041e-05	9.649414e-01	
1971	1.936041e-05	9.649417e-01	
1972	1.937041e-05	9.649414e-01	
1973	1.938041e-05	9.649417e-01	
1974	1.939041e-05	9.649414e-01	
1975	1.940041e-05	9.649417e-01	
1976	1.941041e-05	9.649414e-01	
1977	1.942041e-05	9.649417e-01	
1978	1.943041e-05	9.649414e-01	
1979	1.944041e-05	9.649417e-01	
1980	1.945041e-05	9.649414e-01	
1981	1.946041e-05	9.649417e-01	
1982	1.947041e-05	9.649414e-01	
1983	1.948041e-05	9.649417e-01	
1984	1.949041e-05	9.649414e-01	
1985	1.950041e-05	9.649417e-01	
1986	1.951041e-05	9.649414e-01	
1987	1.952041e-05	9.649417e-01	
1988	1.953041e-05	9.649414e-01	
1989	1.954041e-05	9.649417e-01	
1990	1.955041e-05	9.649414e-01	
1991	1.956041e-05	9.649417e-01	
1992	1.957041e-05	9.649414e-01	
1993	1.958041e-05	9.649417e-01	
1994	1.959041e-05	9.649414e-01	
1995	1.960041e-05	9.649417e-01	
1996	1.961041e-05	9.649414e-01	
1997	1.962041e-05	9.649417e-01	
1998	1.963041e-05	9.649414e-01	
1999	1.964041e-05	9.649417e-01	
2000	1.965041e-05	9.649414e-01	
2001	1.966041e-05	9.649417e-01	
2002	1.967041e-05	9.649414e-01	
2003	1.968041e-05	9.649417e-01	
2004	1.969041e-05	9.649414e-01	
2005	1.970041e-05	9.649417e-01	
2006	1.971041e-05	9.649414e-01	
2007	1.972041e-05	9.649417e-01	
2008	1.973041e-05	9.649414e-01	
2009	1.974041e-05	9.649417e-01	
2010	1.975041e-05	9.649414e-01	
2011	1.976041e-05	9.649417e-01	
2012	1.977041e-05	9.649414e-01	
2013	1.978041e-05	9.649417e-01	
2014	1.979041e-05	9.649414e-01	
2015	1.980041e-05	9.649417e-01	
2016	1.981041e-05	9.649414e-01	
2017	1.982041e-05	9.649417e-01	
2018	1.983041e-05	9.649414e-01	
2019	1.984041e-05	9.649417e-01	
2020	1.985041e-05	9.649414e-01	
2021	1.986041e-05	9.649417e-01	
2022	1.987041e-05	9.649414e-01	
2023	1.988041e-05	9.649417e-01	
2024	1.989041e-05	9.649414e-01	
2025	1.990041e-05	9.649417e-01	
2026	1.991041e-05	9.649414e-01	

Index   time            v(bgr)          
--------------------------------------------------------------------------------
2027	1.992041e-05	9.649417e-01	
2028	1.993041e-05	9.649414e-01	
2029	1.994041e-05	9.649417e-01	
2030	1.995041e-05	9.649414e-01	
2031	1.996041e-05	9.649417e-01	
2032	1.997041e-05	9.649414e-01	
2033	1.998041e-05	9.649417e-01	
2034	1.999041e-05	9.649414e-01	
2035	2.000041e-05	9.649417e-01	
2036	2.001041e-05	9.649414e-01	
2037	2.002041e-05	9.649417e-01	
2038	2.003041e-05	9.649414e-01	
2039	2.004041e-05	9.649417e-01	
2040	2.005041e-05	9.649414e-01	
2041	2.006041e-05	9.649417e-01	
2042	2.007041e-05	9.649414e-01	
2043	2.008041e-05	9.649417e-01	
2044	2.009041e-05	9.649414e-01	
2045	2.010041e-05	9.649417e-01	
2046	2.011041e-05	9.649414e-01	
2047	2.012041e-05	9.649417e-01	
2048	2.013041e-05	9.649414e-01	
2049	2.014041e-05	9.649417e-01	
2050	2.015041e-05	9.649414e-01	
2051	2.016041e-05	9.649417e-01	
2052	2.017041e-05	9.649414e-01	
2053	2.018041e-05	9.649417e-01	
2054	2.019041e-05	9.649414e-01	
2055	2.020041e-05	9.649417e-01	
2056	2.021041e-05	9.649414e-01	
2057	2.022041e-05	9.649417e-01	
2058	2.023041e-05	9.649414e-01	
2059	2.024041e-05	9.649417e-01	
2060	2.025041e-05	9.649414e-01	
2061	2.026041e-05	9.649417e-01	
2062	2.027041e-05	9.649414e-01	
2063	2.028041e-05	9.649417e-01	
2064	2.029041e-05	9.649414e-01	
2065	2.030041e-05	9.649417e-01	
2066	2.031041e-05	9.649414e-01	
2067	2.032041e-05	9.649417e-01	
2068	2.033041e-05	9.649414e-01	
2069	2.034041e-05	9.649417e-01	
2070	2.035041e-05	9.649414e-01	
2071	2.036041e-05	9.649417e-01	
2072	2.037041e-05	9.649414e-01	
2073	2.038041e-05	9.649417e-01	
2074	2.039041e-05	9.649414e-01	
2075	2.040041e-05	9.649417e-01	
2076	2.041041e-05	9.649414e-01	
2077	2.042041e-05	9.649417e-01	
2078	2.043041e-05	9.649414e-01	
2079	2.044041e-05	9.649417e-01	
2080	2.045041e-05	9.649414e-01	
2081	2.046041e-05	9.649417e-01	
2082	2.047041e-05	9.649414e-01	
2083	2.048041e-05	9.649417e-01	
2084	2.049041e-05	9.649414e-01	

Index   time            v(bgr)          
--------------------------------------------------------------------------------
2085	2.050041e-05	9.649417e-01	
2086	2.051041e-05	9.649414e-01	
2087	2.052041e-05	9.649417e-01	
2088	2.053041e-05	9.649414e-01	
2089	2.054041e-05	9.649417e-01	
2090	2.055041e-05	9.649414e-01	
2091	2.056041e-05	9.649417e-01	
2092	2.057041e-05	9.649414e-01	
2093	2.058041e-05	9.649417e-01	
2094	2.059041e-05	9.649414e-01	
2095	2.060041e-05	9.649417e-01	
2096	2.061041e-05	9.649414e-01	
2097	2.062041e-05	9.649417e-01	
2098	2.063041e-05	9.649414e-01	
2099	2.064041e-05	9.649417e-01	
2100	2.065041e-05	9.649414e-01	
2101	2.066041e-05	9.649417e-01	
2102	2.067041e-05	9.649414e-01	
2103	2.068041e-05	9.649417e-01	
2104	2.069041e-05	9.649414e-01	
2105	2.070041e-05	9.649417e-01	
2106	2.071041e-05	9.649414e-01	
2107	2.072041e-05	9.649417e-01	
2108	2.073041e-05	9.649414e-01	
2109	2.074041e-05	9.649417e-01	
2110	2.075041e-05	9.649414e-01	
2111	2.076041e-05	9.649417e-01	
2112	2.077041e-05	9.649414e-01	
2113	2.078041e-05	9.649417e-01	
2114	2.079041e-05	9.649414e-01	
2115	2.080041e-05	9.649417e-01	
2116	2.081041e-05	9.649414e-01	
2117	2.082041e-05	9.649417e-01	
2118	2.083041e-05	9.649414e-01	
2119	2.084041e-05	9.649417e-01	
2120	2.085041e-05	9.649414e-01	
2121	2.086041e-05	9.649417e-01	
2122	2.087041e-05	9.649414e-01	
2123	2.088041e-05	9.649417e-01	
2124	2.089041e-05	9.649414e-01	
2125	2.090041e-05	9.649417e-01	
2126	2.091041e-05	9.649414e-01	
2127	2.092041e-05	9.649417e-01	
2128	2.093041e-05	9.649414e-01	
2129	2.094041e-05	9.649417e-01	
2130	2.095041e-05	9.649414e-01	
2131	2.096041e-05	9.649417e-01	
2132	2.097041e-05	9.649414e-01	
2133	2.098041e-05	9.649417e-01	
2134	2.099041e-05	9.649414e-01	
2135	2.100041e-05	9.649417e-01	
2136	2.101041e-05	9.649414e-01	
2137	2.102041e-05	9.649417e-01	
2138	2.103041e-05	9.649414e-01	
2139	2.104041e-05	9.649417e-01	
2140	2.105041e-05	9.649414e-01	
2141	2.106041e-05	9.649417e-01	
2142	2.107041e-05	9.649414e-01	

Index   time            v(bgr)          
--------------------------------------------------------------------------------
2143	2.108041e-05	9.649417e-01	
2144	2.109041e-05	9.649414e-01	
2145	2.110041e-05	9.649417e-01	
2146	2.111041e-05	9.649414e-01	
2147	2.112041e-05	9.649417e-01	
2148	2.113041e-05	9.649414e-01	
2149	2.114041e-05	9.649417e-01	
2150	2.115041e-05	9.649414e-01	
2151	2.116041e-05	9.649417e-01	
2152	2.117041e-05	9.649414e-01	
2153	2.118041e-05	9.649417e-01	
2154	2.119041e-05	9.649414e-01	
2155	2.120041e-05	9.649417e-01	
2156	2.121041e-05	9.649414e-01	
2157	2.122041e-05	9.649417e-01	
2158	2.123041e-05	9.649414e-01	
2159	2.124041e-05	9.649417e-01	
2160	2.125041e-05	9.649414e-01	
2161	2.126041e-05	9.649417e-01	
2162	2.127041e-05	9.649414e-01	
2163	2.128041e-05	9.649417e-01	
2164	2.129041e-05	9.649414e-01	
2165	2.130041e-05	9.649417e-01	
2166	2.131041e-05	9.649414e-01	
2167	2.132041e-05	9.649417e-01	
2168	2.133041e-05	9.649414e-01	
2169	2.134041e-05	9.649417e-01	
2170	2.135041e-05	9.649414e-01	
2171	2.136041e-05	9.649417e-01	
2172	2.137041e-05	9.649414e-01	
2173	2.138041e-05	9.649417e-01	
2174	2.139041e-05	9.649414e-01	
2175	2.140041e-05	9.649417e-01	
2176	2.141041e-05	9.649414e-01	
2177	2.142041e-05	9.649417e-01	
2178	2.143041e-05	9.649414e-01	
2179	2.144041e-05	9.649417e-01	
2180	2.145041e-05	9.649414e-01	
2181	2.146041e-05	9.649417e-01	
2182	2.147041e-05	9.649414e-01	
2183	2.148041e-05	9.649417e-01	
2184	2.149041e-05	9.649414e-01	
2185	2.150041e-05	9.649417e-01	
2186	2.151041e-05	9.649414e-01	
2187	2.152041e-05	9.649417e-01	
2188	2.153041e-05	9.649414e-01	
2189	2.154041e-05	9.649417e-01	
2190	2.155041e-05	9.649414e-01	
2191	2.156041e-05	9.649417e-01	
2192	2.157041e-05	9.649414e-01	
2193	2.158041e-05	9.649417e-01	
2194	2.159041e-05	9.649414e-01	
2195	2.160041e-05	9.649417e-01	
2196	2.161041e-05	9.649414e-01	
2197	2.162041e-05	9.649417e-01	
2198	2.163041e-05	9.649414e-01	
2199	2.164041e-05	9.649417e-01	
2200	2.165041e-05	9.649414e-01	

Index   time            v(bgr)          
--------------------------------------------------------------------------------
2201	2.166041e-05	9.649417e-01	
2202	2.167041e-05	9.649414e-01	
2203	2.168041e-05	9.649417e-01	
2204	2.169041e-05	9.649414e-01	
2205	2.170041e-05	9.649417e-01	
2206	2.171041e-05	9.649414e-01	
2207	2.172041e-05	9.649417e-01	
2208	2.173041e-05	9.649414e-01	
2209	2.174041e-05	9.649417e-01	
2210	2.175041e-05	9.649414e-01	
2211	2.176041e-05	9.649417e-01	
2212	2.177041e-05	9.649414e-01	
2213	2.178041e-05	9.649417e-01	
2214	2.179041e-05	9.649414e-01	
2215	2.180041e-05	9.649417e-01	
2216	2.181041e-05	9.649414e-01	
2217	2.182041e-05	9.649417e-01	
2218	2.183041e-05	9.649414e-01	
2219	2.184041e-05	9.649417e-01	
2220	2.185041e-05	9.649414e-01	
2221	2.186041e-05	9.649417e-01	
2222	2.187041e-05	9.649414e-01	
2223	2.188041e-05	9.649417e-01	
2224	2.189041e-05	9.649414e-01	
2225	2.190041e-05	9.649417e-01	
2226	2.191041e-05	9.649414e-01	
2227	2.192041e-05	9.649417e-01	
2228	2.193041e-05	9.649414e-01	
2229	2.194041e-05	9.649417e-01	
2230	2.195041e-05	9.649414e-01	
2231	2.196041e-05	9.649417e-01	
2232	2.197041e-05	9.649414e-01	
2233	2.198041e-05	9.649417e-01	
2234	2.199041e-05	9.649414e-01	
2235	2.200041e-05	9.649417e-01	
2236	2.201041e-05	9.649414e-01	
2237	2.202041e-05	9.649417e-01	
2238	2.203041e-05	9.649414e-01	
2239	2.204041e-05	9.649417e-01	
2240	2.205041e-05	9.649414e-01	
2241	2.206041e-05	9.649417e-01	
2242	2.207041e-05	9.649414e-01	
2243	2.208041e-05	9.649417e-01	
2244	2.209041e-05	9.649414e-01	
2245	2.210041e-05	9.649417e-01	
2246	2.211041e-05	9.649414e-01	
2247	2.212041e-05	9.649417e-01	
2248	2.213041e-05	9.649414e-01	
2249	2.214041e-05	9.649417e-01	
2250	2.215041e-05	9.649414e-01	
2251	2.216041e-05	9.649417e-01	
2252	2.217041e-05	9.649414e-01	
2253	2.218041e-05	9.649417e-01	
2254	2.219041e-05	9.649414e-01	
2255	2.220041e-05	9.649417e-01	
2256	2.221041e-05	9.649414e-01	
2257	2.222041e-05	9.649417e-01	
2258	2.223041e-05	9.649414e-01	

Index   time            v(bgr)          
--------------------------------------------------------------------------------
2259	2.224041e-05	9.649417e-01	
2260	2.225041e-05	9.649414e-01	
2261	2.226041e-05	9.649417e-01	
2262	2.227041e-05	9.649414e-01	
2263	2.228041e-05	9.649417e-01	
2264	2.229041e-05	9.649414e-01	
2265	2.230041e-05	9.649417e-01	
2266	2.231041e-05	9.649414e-01	
2267	2.232041e-05	9.649417e-01	
2268	2.233041e-05	9.649414e-01	
2269	2.234041e-05	9.649417e-01	
2270	2.235041e-05	9.649414e-01	
2271	2.236041e-05	9.649417e-01	
2272	2.237041e-05	9.649414e-01	
2273	2.238041e-05	9.649417e-01	
2274	2.239041e-05	9.649414e-01	
2275	2.240041e-05	9.649417e-01	
2276	2.241041e-05	9.649414e-01	
2277	2.242041e-05	9.649417e-01	
2278	2.243041e-05	9.649414e-01	
2279	2.244041e-05	9.649417e-01	
2280	2.245041e-05	9.649414e-01	
2281	2.246041e-05	9.649417e-01	
2282	2.247041e-05	9.649414e-01	
2283	2.248041e-05	9.649417e-01	
2284	2.249041e-05	9.649414e-01	
2285	2.250041e-05	9.649417e-01	
2286	2.251041e-05	9.649414e-01	
2287	2.252041e-05	9.649417e-01	
2288	2.253041e-05	9.649414e-01	
2289	2.254041e-05	9.649417e-01	
2290	2.255041e-05	9.649414e-01	
2291	2.256041e-05	9.649417e-01	
2292	2.257041e-05	9.649414e-01	
2293	2.258041e-05	9.649417e-01	
2294	2.259041e-05	9.649414e-01	
2295	2.260041e-05	9.649417e-01	
2296	2.261041e-05	9.649414e-01	
2297	2.262041e-05	9.649417e-01	
2298	2.263041e-05	9.649414e-01	
2299	2.264041e-05	9.649417e-01	
2300	2.265041e-05	9.649414e-01	
2301	2.266041e-05	9.649417e-01	
2302	2.267041e-05	9.649414e-01	
2303	2.268041e-05	9.649417e-01	
2304	2.269041e-05	9.649414e-01	
2305	2.270041e-05	9.649417e-01	
2306	2.271041e-05	9.649414e-01	
2307	2.272041e-05	9.649417e-01	
2308	2.273041e-05	9.649414e-01	
2309	2.274041e-05	9.649417e-01	
2310	2.275041e-05	9.649414e-01	
2311	2.276041e-05	9.649417e-01	
2312	2.277041e-05	9.649414e-01	
2313	2.278041e-05	9.649417e-01	
2314	2.279041e-05	9.649414e-01	
2315	2.280041e-05	9.649417e-01	
2316	2.281041e-05	9.649414e-01	

Index   time            v(bgr)          
--------------------------------------------------------------------------------
2317	2.282041e-05	9.649417e-01	
2318	2.283041e-05	9.649414e-01	
2319	2.284041e-05	9.649417e-01	
2320	2.285041e-05	9.649414e-01	
2321	2.286041e-05	9.649417e-01	
2322	2.287041e-05	9.649414e-01	
2323	2.288041e-05	9.649417e-01	
2324	2.289041e-05	9.649414e-01	
2325	2.290041e-05	9.649417e-01	
2326	2.291041e-05	9.649414e-01	
2327	2.292041e-05	9.649417e-01	
2328	2.293041e-05	9.649414e-01	
2329	2.294041e-05	9.649417e-01	
2330	2.295041e-05	9.649414e-01	
2331	2.296041e-05	9.649417e-01	
2332	2.297041e-05	9.649414e-01	
2333	2.298041e-05	9.649417e-01	
2334	2.299041e-05	9.649414e-01	
2335	2.300041e-05	9.649417e-01	
2336	2.301041e-05	9.649414e-01	
2337	2.302041e-05	9.649417e-01	
2338	2.303041e-05	9.649414e-01	
2339	2.304041e-05	9.649417e-01	
2340	2.305041e-05	9.649414e-01	
2341	2.306041e-05	9.649417e-01	
2342	2.307041e-05	9.649414e-01	
2343	2.308041e-05	9.649417e-01	
2344	2.309041e-05	9.649414e-01	
2345	2.310041e-05	9.649417e-01	
2346	2.311041e-05	9.649414e-01	
2347	2.312041e-05	9.649417e-01	
2348	2.313041e-05	9.649414e-01	
2349	2.314041e-05	9.649417e-01	
2350	2.315041e-05	9.649414e-01	
2351	2.316041e-05	9.649417e-01	
2352	2.317041e-05	9.649414e-01	
2353	2.318041e-05	9.649417e-01	
2354	2.319041e-05	9.649414e-01	
2355	2.320041e-05	9.649417e-01	
2356	2.321041e-05	9.649414e-01	
2357	2.322041e-05	9.649417e-01	
2358	2.323041e-05	9.649414e-01	
2359	2.324041e-05	9.649417e-01	
2360	2.325041e-05	9.649414e-01	
2361	2.326041e-05	9.649417e-01	
2362	2.327041e-05	9.649414e-01	
[...]
2462	2.427041e-05	9.649414e-01	
2463	2.428041e-05	9.649417e-01	
2464	2.429041e-05	9.649414e-01	
2465	2.430041e-05	9.649417e-01	
2466	2.431041e-05	9.649414e-01	
2467	2.432041e-05	9.649417e-01	
2468	2.433041e-05	9.649414e-01	
2469	2.434041e-05	9.649417e-01	
2470	2.435041e-05	9.649414e-01	
2471	2.436041e-05	9.649417e-01	
2472	2.437041e-05	9.649414e-01	
2473	2.438041e-05	9.649417e-01	
2474	2.439041e-05	9.649414e-01	
2475	2.440041e-05	9.649417e-01	
2476	2.441041e-05	9.649414e-01	
2477	2.442041e-05	9.649417e-01	
2478	2.443041e-05	9.649414e-01	
2479	2.444041e-05	9.649417e-01	
2480	2.445041e-05	9.649414e-01	
2481	2.446041e-05	9.649417e-01	
2482	2.447041e-05	9.649414e-01	
2483	2.448041e-05	9.649417e-01	
2484	2.449041e-05	9.649414e-01	
2485	2.450041e-05	9.649417e-01	
2486	2.451041e-05	9.649414e-01	
2487	2.452041e-05	9.649417e-01	
2488	2.453041e-05	9.649414e-01	
2489	2.454041e-05	9.649417e-01	
2490	2.455041e-05	9.649414e-01	

Index   time            v(bgr)          
--------------------------------------------------------------------------------
2491	2.456041e-05	9.649417e-01	
2492	2.457041e-05	9.649414e-01	
2493	2.458041e-05	9.649417e-01	
2494	2.459041e-05	9.649414e-01	
2495	2.460041e-05	9.649417e-01	
2496	2.461041e-05	9.649414e-01	
2497	2.462041e-05	9.649417e-01	
2498	2.463041e-05	9.649414e-01	
2499	2.464041e-05	9.649417e-01	
2500	2.465041e-05	9.649414e-01	
2501	2.466041e-05	9.649417e-01	
2502	2.467041e-05	9.649414e-01	
2503	2.468041e-05	9.649417e-01	
2504	2.469041e-05	9.649414e-01	
2505	2.470041e-05	9.649417e-01	
2506	2.471041e-05	9.649414e-01	
2507	2.472041e-05	9.649417e-01	
2508	2.473041e-05	9.649414e-01	
2509	2.474041e-05	9.649417e-01	
2510	2.475041e-05	9.649414e-01	
2511	2.476041e-05	9.649417e-01	
2512	2.477041e-05	9.649414e-01	
2513	2.478041e-05	9.649417e-01	
2514	2.479041e-05	9.649414e-01	
2515	2.480041e-05	9.649417e-01	
2516	2.481041e-05	9.649414e-01	
2517	2.482041e-05	9.649417e-01	
2518	2.483041e-05	9.649414e-01	
2519	2.484041e-05	9.649417e-01	
2520	2.485041e-05	9.649414e-01	
2521	2.486041e-05	9.649417e-01	
2522	2.487041e-05	9.649414e-01	
2523	2.488041e-05	9.649417e-01	
2524	2.489041e-05	9.649414e-01	
2525	2.490041e-05	9.649417e-01	
2526	2.491041e-05	9.649414e-01	
2527	2.492041e-05	9.649417e-01	
2528	2.493041e-05	9.649414e-01	
2529	2.494041e-05	9.649417e-01	
2530	2.495041e-05	9.649414e-01	
2531	2.496041e-05	9.649417e-01	
2532	2.497041e-05	9.649414e-01	
2533	2.498041e-05	9.649417e-01	
2534	2.499041e-05	9.649414e-01	
2535	2.500041e-05	9.649417e-01	
2536	2.501041e-05	9.649414e-01	
2537	2.502041e-05	9.649417e-01	
2538	2.503041e-05	9.649414e-01	
2539	2.504041e-05	9.649417e-01	
2540	2.505041e-05	9.649414e-01	
2541	2.506041e-05	9.649417e-01	
2542	2.507041e-05	9.649414e-01	
2543	2.508041e-05	9.649417e-01	
2544	2.509041e-05	9.649414e-01	
2545	2.510041e-05	9.649417e-01	
2546	2.511041e-05	9.649414e-01	
2547	2.512041e-05	9.649417e-01	
2548	2.513041e-05	9.649414e-01	

Index   time            v(bgr)          
--------------------------------------------------------------------------------
2549	2.514041e-05	9.649417e-01	
2550	2.515041e-05	9.649414e-01	
2551	2.516041e-05	9.649417e-01	
2552	2.517041e-05	9.649414e-01	
2553	2.518041e-05	9.649417e-01	
2554	2.519041e-05	9.649414e-01	
2555	2.520041e-05	9.649417e-01	
2556	2.521041e-05	9.649414e-01	
2557	2.522041e-05	9.649417e-01	
2558	2.523041e-05	9.649414e-01	
2559	2.524041e-05	9.649417e-01	
2560	2.525041e-05	9.649414e-01	
2561	2.526041e-05	9.649417e-01	
2562	2.527041e-05	9.649414e-01	
2563	2.528041e-05	9.649417e-01	
2564	2.529041e-05	9.649414e-01	
2565	2.530041e-05	9.649417e-01	
2566	2.531041e-05	9.649414e-01	
2567	2.532041e-05	9.649417e-01	
2568	2.533041e-05	9.649414e-01	
2569	2.534041e-05	9.649417e-01	
2570	2.535041e-05	9.649414e-01	
2571	2.536041e-05	9.649417e-01	
2572	2.537041e-05	9.649414e-01	
2573	2.538041e-05	9.649417e-01	
2574	2.539041e-05	9.649414e-01	
2575	2.540041e-05	9.649417e-01	
2576	2.541041e-05	9.649414e-01	
2577	2.542041e-05	9.649417e-01	
2578	2.543041e-05	9.649414e-01	
2579	2.544041e-05	9.649417e-01	
2580	2.545041e-05	9.649414e-01	
2581	2.546041e-05	9.649417e-01	
2582	2.547041e-05	9.649414e-01	
2583	2.548041e-05	9.649417e-01	
2584	2.549041e-05	9.649414e-01	
2585	2.550041e-05	9.649417e-01	
2586	2.551041e-05	9.649414e-01	
2587	2.552041e-05	9.649417e-01	
2588	2.553041e-05	9.649414e-01	
2589	2.554041e-05	9.649417e-01	
2590	2.555041e-05	9.649414e-01	
2591	2.556041e-05	9.649417e-01	
2592	2.557041e-05	9.649414e-01	
2593	2.558041e-05	9.649417e-01	
2594	2.559041e-05	9.649414e-01	
2595	2.560041e-05	9.649417e-01	
2596	2.561041e-05	9.649414e-01	
2597	2.562041e-05	9.649417e-01	
2598	2.563041e-05	9.649414e-01	
2599	2.564041e-05	9.649417e-01	
2600	2.565041e-05	9.649414e-01	
2601	2.566041e-05	9.649417e-01	
2602	2.567041e-05	9.649414e-01	
2603	2.568041e-05	9.649417e-01	
2604	2.569041e-05	9.649414e-01	
2605	2.570041e-05	9.649417e-01	
2606	2.571041e-05	9.649414e-01	

Index   time            v(bgr)          
--------------------------------------------------------------------------------
2607	2.572041e-05	9.649417e-01	
2608	2.573041e-05	9.649414e-01	
2609	2.574041e-05	9.649417e-01	
2610	2.575041e-05	9.649414e-01	
2611	2.576041e-05	9.649417e-01	
2612	2.577041e-05	9.649414e-01	
2613	2.578041e-05	9.649417e-01	
2614	2.579041e-05	9.649414e-01	
2615	2.580041e-05	9.649417e-01	
2616	2.581041e-05	9.649414e-01	
2617	2.582041e-05	9.649417e-01	
2618	2.583041e-05	9.649414e-01	
2619	2.584041e-05	9.649417e-01	
2620	2.585041e-05	9.649414e-01	
2621	2.586041e-05	9.649417e-01	
2622	2.587041e-05	9.649414e-01	
2623	2.588041e-05	9.649417e-01	
2624	2.589041e-05	9.649414e-01	
2625	2.590041e-05	9.649417e-01	
2626	2.591041e-05	9.649414e-01	
2627	2.592041e-05	9.649417e-01	
2628	2.593041e-05	9.649414e-01	
2629	2.594041e-05	9.649417e-01	
2630	2.595041e-05	9.649414e-01	
2631	2.596041e-05	9.649417e-01	
2632	2.597041e-05	9.649414e-01	
2633	2.598041e-05	9.649417e-01	
2634	2.599041e-05	9.649414e-01	
2635	2.600041e-05	9.649417e-01	
2636	2.601041e-05	9.649414e-01	
2637	2.602041e-05	9.649417e-01	
2638	2.603041e-05	9.649414e-01	
2639	2.604041e-05	9.649417e-01	
2640	2.605041e-05	9.649414e-01	
2641	2.606041e-05	9.649417e-01	
2642	2.607041e-05	9.649414e-01	
2643	2.608041e-05	9.649417e-01	
2644	2.609041e-05	9.649414e-01	
2645	2.610041e-05	9.649417e-01	
2646	2.611041e-05	9.649414e-01	
2647	2.612041e-05	9.649417e-01	
2648	2.613041e-05	9.649414e-01	
2649	2.614041e-05	9.649417e-01	
2650	2.615041e-05	9.649414e-01	
2651	2.616041e-05	9.649417e-01	
2652	2.617041e-05	9.649414e-01	
2653	2.618041e-05	9.649417e-01	
2654	2.619041e-05	9.649414e-01	
2655	2.620041e-05	9.649417e-01	
2656	2.621041e-05	9.649414e-01	
2657	2.622041e-05	9.649417e-01	
2658	2.623041e-05	9.649414e-01	
2659	2.624041e-05	9.649417e-01	
2660	2.625041e-05	9.649414e-01	
2661	2.626041e-05	9.649417e-01	
2662	2.627041e-05	9.649414e-01	
2663	2.628041e-05	9.649417e-01	
2664	2.629041e-05	9.649414e-01	

Index   time            v(bgr)          
--------------------------------------------------------------------------------
2665	2.630041e-05	9.649417e-01	
2666	2.631041e-05	9.649414e-01	
2667	2.632041e-05	9.649417e-01	
2668	2.633041e-05	9.649414e-01	
2669	2.634041e-05	9.649417e-01	
2670	2.635041e-05	9.649414e-01	
2671	2.636041e-05	9.649417e-01	
2672	2.637041e-05	9.649414e-01	
2673	2.638041e-05	9.649417e-01	
2674	2.639041e-05	9.649414e-01	
2675	2.640041e-05	9.649417e-01	
2676	2.641041e-05	9.649414e-01	
2677	2.642041e-05	9.649417e-01	
2678	2.643041e-05	9.649414e-01	
2679	2.644041e-05	9.649417e-01	
2680	2.645041e-05	9.649414e-01	
2681	2.646041e-05	9.649417e-01	
2682	2.647041e-05	9.649414e-01	
2683	2.648041e-05	9.649417e-01	
2684	2.649041e-05	9.649414e-01	
2685	2.650041e-05	9.649417e-01	
2686	2.651041e-05	9.649414e-01	
2687	2.652041e-05	9.649417e-01	
2688	2.653041e-05	9.649414e-01	
2689	2.654041e-05	9.649417e-01	
2690	2.655041e-05	9.649414e-01	
2691	2.656041e-05	9.649417e-01	
2692	2.657041e-05	9.649414e-01	
2693	2.658041e-05	9.649417e-01	
2694	2.659041e-05	9.649414e-01	
2695	2.660041e-05	9.649417e-01	
2696	2.661041e-05	9.649414e-01	
2697	2.662041e-05	9.649417e-01	
2698	2.663041e-05	9.649414e-01	
2699	2.664041e-05	9.649417e-01	
2700	2.665041e-05	9.649414e-01	
2701	2.666041e-05	9.649417e-01	
2702	2.667041e-05	9.649414e-01	
2703	2.668041e-05	9.649417e-01	
2704	2.669041e-05	9.649414e-01	
2705	2.670041e-05	9.649417e-01	
2706	2.671041e-05	9.649414e-01	
2707	2.672041e-05	9.649417e-01	
2708	2.673041e-05	9.649414e-01	
2709	2.674041e-05	9.649417e-01	
2710	2.675041e-05	9.649414e-01	
2711	2.676041e-05	9.649417e-01	
2712	2.677041e-05	9.649414e-01	
2713	2.678041e-05	9.649417e-01	
2714	2.679041e-05	9.649414e-01	
2715	2.680041e-05	9.649417e-01	
2716	2.681041e-05	9.649414e-01	
2717	2.682041e-05	9.649417e-01	
2718	2.683041e-05	9.649414e-01	
2719	2.684041e-05	9.649417e-01	
2720	2.685041e-05	9.649414e-01	
2721	2.686041e-05	9.649417e-01	
2722	2.687041e-05	9.649414e-01	

Index   time            v(bgr)          
--------------------------------------------------------------------------------
2723	2.688041e-05	9.649417e-01	
2724	2.689041e-05	9.649414e-01	
2725	2.690041e-05	9.649417e-01	
2726	2.691041e-05	9.649414e-01	
2727	2.692041e-05	9.649417e-01	
2728	2.693041e-05	9.649414e-01	
2729	2.694041e-05	9.649417e-01	
2730	2.695041e-05	9.649414e-01	
2731	2.696041e-05	9.649417e-01	
2732	2.697041e-05	9.649414e-01	
2733	2.698041e-05	9.649417e-01	
2734	2.699041e-05	9.649414e-01	
2735	2.700041e-05	9.649417e-01	
2736	2.701041e-05	9.649414e-01	
2737	2.702041e-05	9.649417e-01	
2738	2.703041e-05	9.649414e-01	
2739	2.704041e-05	9.649417e-01	
2740	2.705041e-05	9.649414e-01	
2741	2.706041e-05	9.649417e-01	
2742	2.707041e-05	9.649414e-01	
2743	2.708041e-05	9.649417e-01	
2744	2.709041e-05	9.649414e-01	
2745	2.710041e-05	9.649417e-01	
2746	2.711041e-05	9.649414e-01	
2747	2.712041e-05	9.649417e-01	
2748	2.713041e-05	9.649414e-01	
2749	2.714041e-05	9.649417e-01	
2750	2.715041e-05	9.649414e-01	
2751	2.716041e-05	9.649417e-01	
2752	2.717041e-05	9.649414e-01	
2753	2.718041e-05	9.649417e-01	
2754	2.719041e-05	9.649414e-01	
2755	2.720041e-05	9.649417e-01	
2756	2.721041e-05	9.649414e-01	
2757	2.722041e-05	9.649417e-01	
2758	2.723041e-05	9.649414e-01	
2759	2.724041e-05	9.649417e-01	
2760	2.725041e-05	9.649414e-01	
2761	2.726041e-05	9.649417e-01	
2762	2.727041e-05	9.649414e-01	
2763	2.728041e-05	9.649417e-01	
2764	2.729041e-05	9.649414e-01	
2765	2.730041e-05	9.649417e-01	
2766	2.731041e-05	9.649414e-01	
2767	2.732041e-05	9.649417e-01	
2768	2.733041e-05	9.649414e-01	
2769	2.734041e-05	9.649417e-01	
2770	2.735041e-05	9.649414e-01	
2771	2.736041e-05	9.649417e-01	
2772	2.737041e-05	9.649414e-01	
2773	2.738041e-05	9.649417e-01	
2774	2.739041e-05	9.649414e-01	
2775	2.740041e-05	9.649417e-01	
2776	2.741041e-05	9.649414e-01	
2777	2.742041e-05	9.649417e-01	
2778	2.743041e-05	9.649414e-01	
2779	2.744041e-05	9.649417e-01	
2780	2.745041e-05	9.649414e-01	

Index   time            v(bgr)          
--------------------------------------------------------------------------------
2781	2.746041e-05	9.649417e-01	
2782	2.747041e-05	9.649414e-01	
2783	2.748041e-05	9.649417e-01	
2784	2.749041e-05	9.649414e-01	
2785	2.750041e-05	9.649417e-01	
2786	2.751041e-05	9.649414e-01	
2787	2.752041e-05	9.649417e-01	
2788	2.753041e-05	9.649414e-01	
2789	2.754041e-05	9.649417e-01	
2790	2.755041e-05	9.649414e-01	
2791	2.756041e-05	9.649417e-01	
2792	2.757041e-05	9.649414e-01	
2793	2.758041e-05	9.649417e-01	
2794	2.759041e-05	9.649414e-01	
2795	2.760041e-05	9.649417e-01	
2796	2.761041e-05	9.649414e-01	
2797	2.762041e-05	9.649417e-01	
2798	2.763041e-05	9.649414e-01	
2799	2.764041e-05	9.649417e-01	
2800	2.765041e-05	9.649414e-01	
2801	2.766041e-05	9.649417e-01	
2802	2.767041e-05	9.649414e-01	
2803	2.768041e-05	9.649417e-01	
2804	2.769041e-05	9.649414e-01	
2805	2.770041e-05	9.649417e-01	
2806	2.771041e-05	9.649414e-01	
2807	2.772041e-05	9.649417e-01	
2808	2.773041e-05	9.649414e-01	
2809	2.774041e-05	9.649417e-01	
2810	2.775041e-05	9.649414e-01	
2811	2.776041e-05	9.649417e-01	
2812	2.777041e-05	9.649414e-01	
2813	2.778041e-05	9.649417e-01	
2814	2.779041e-05	9.649414e-01	
2815	2.780041e-05	9.649417e-01	
2816	2.781041e-05	9.649414e-01	
2817	2.782041e-05	9.649417e-01	
2818	2.783041e-05	9.649414e-01	
2819	2.784041e-05	9.649417e-01	
2820	2.785041e-05	9.649414e-01	
2821	2.786041e-05	9.649417e-01	
2822	2.787041e-05	9.649414e-01	
2823	2.788041e-05	9.649417e-01	
2824	2.789041e-05	9.649414e-01	
2825	2.790041e-05	9.649417e-01	
2826	2.791041e-05	9.649414e-01	
2827	2.792041e-05	9.649417e-01	
2828	2.793041e-05	9.649414e-01	
2829	2.794041e-05	9.649417e-01	
2830	2.795041e-05	9.649414e-01	
2831	2.796041e-05	9.649417e-01	
2832	2.797041e-05	9.649414e-01	
2833	2.798041e-05	9.649417e-01	
2834	2.799041e-05	9.649414e-01	
2835	2.800041e-05	9.649417e-01	
2836	2.801041e-05	9.649414e-01	
2837	2.802041e-05	9.649417e-01	
2838	2.803041e-05	9.649414e-01	

Index   time            v(bgr)          
--------------------------------------------------------------------------------
2839	2.804041e-05	9.649417e-01	
2840	2.805041e-05	9.649414e-01	
2841	2.806041e-05	9.649417e-01	
2842	2.807041e-05	9.649414e-01	
2843	2.808041e-05	9.649417e-01	
2844	2.809041e-05	9.649414e-01	
2845	2.810041e-05	9.649417e-01	
2846	2.811041e-05	9.649414e-01	
2847	2.812041e-05	9.649417e-01	
2848	2.813041e-05	9.649414e-01	
2849	2.814041e-05	9.649417e-01	
2850	2.815041e-05	9.649414e-01	
2851	2.816041e-05	9.649417e-01	
2852	2.817041e-05	9.649414e-01	
2853	2.818041e-05	9.649417e-01	
2854	2.819041e-05	9.649414e-01	
2855	2.820041e-05	9.649417e-01	
2856	2.821041e-05	9.649414e-01	
2857	2.822041e-05	9.649417e-01	
2858	2.823041e-05	9.649414e-01	
2859	2.824041e-05	9.649417e-01	
2860	2.825041e-05	9.649414e-01	
2861	2.826041e-05	9.649417e-01	
2862	2.827041e-05	9.649414e-01	
2863	2.828041e-05	9.649417e-01	
2864	2.829041e-05	9.649414e-01	
2865	2.830041e-05	9.649417e-01	
2866	2.831041e-05	9.649414e-01	
2867	2.832041e-05	9.649417e-01	
2868	2.833041e-05	9.649414e-01	
2869	2.834041e-05	9.649417e-01	
2870	2.835041e-05	9.649414e-01	
2871	2.836041e-05	9.649417e-01	
2872	2.837041e-05	9.649414e-01	
2873	2.838041e-05	9.649417e-01	
2874	2.839041e-05	9.649414e-01	
2875	2.840041e-05	9.649417e-01	
2876	2.841041e-05	9.649414e-01	
2877	2.842041e-05	9.649417e-01	
2878	2.843041e-05	9.649414e-01	
2879	2.844041e-05	9.649417e-01	
2880	2.845041e-05	9.649414e-01	
2881	2.846041e-05	9.649417e-01	
2882	2.847041e-05	9.649414e-01	
2883	2.848041e-05	9.649417e-01	
2884	2.849041e-05	9.649414e-01	
2885	2.850041e-05	9.649417e-01	
2886	2.851041e-05	9.649414e-01	
2887	2.852041e-05	9.649417e-01	
2888	2.853041e-05	9.649414e-01	
2889	2.854041e-05	9.649417e-01	
2890	2.855041e-05	9.649414e-01	
2891	2.856041e-05	9.649417e-01	
2892	2.857041e-05	9.649414e-01	
2893	2.858041e-05	9.649417e-01	
2894	2.859041e-05	9.649414e-01	
2895	2.860041e-05	9.649417e-01	
2896	2.861041e-05	9.649414e-01	

Index   time            v(bgr)          
--------------------------------------------------------------------------------
2897	2.862041e-05	9.649417e-01	
2898	2.863041e-05	9.649414e-01	
2899	2.864041e-05	9.649417e-01	
2900	2.865041e-05	9.649414e-01	
2901	2.866041e-05	9.649417e-01	
2902	2.867041e-05	9.649414e-01	
2903	2.868041e-05	9.649417e-01	
2904	2.869041e-05	9.649414e-01	
2905	2.870041e-05	9.649417e-01	
2906	2.871041e-05	9.649414e-01	
2907	2.872041e-05	9.649417e-01	
2908	2.873041e-05	9.649414e-01	
2909	2.874041e-05	9.649417e-01	
2910	2.875041e-05	9.649414e-01	
2911	2.876041e-05	9.649417e-01	
2912	2.877041e-05	9.649414e-01	
2913	2.878041e-05	9.649417e-01	
2914	2.879041e-05	9.649414e-01	
2915	2.880041e-05	9.649417e-01	
2916	2.881041e-05	9.649414e-01	
2917	2.882041e-05	9.649417e-01	
2918	2.883041e-05	9.649414e-01	
2919	2.884041e-05	9.649417e-01	
2920	2.885041e-05	9.649414e-01	
2921	2.886041e-05	9.649417e-01	
2922	2.887041e-05	9.649414e-01	
2923	2.888041e-05	9.649417e-01	
2924	2.889041e-05	9.649414e-01	
2925	2.890041e-05	9.649417e-01	
2926	2.891041e-05	9.649414e-01	
2927	2.892041e-05	9.649417e-01	
2928	2.893041e-05	9.649414e-01	
2929	2.894041e-05	9.649417e-01	
2930	2.895041e-05	9.649414e-01	
2931	2.896041e-05	9.649417e-01	
2932	2.897041e-05	9.649414e-01	
2933	2.898041e-05	9.649417e-01	
2934	2.899041e-05	9.649414e-01	
2935	2.900041e-05	9.649417e-01	
2936	2.901041e-05	9.649414e-01	
2937	2.902041e-05	9.649417e-01	
2938	2.903041e-05	9.649414e-01	
2939	2.904041e-05	9.649417e-01	
2940	2.905041e-05	9.649414e-01	
2941	2.906041e-05	9.649417e-01	
2942	2.907041e-05	9.649414e-01	
2943	2.908041e-05	9.649417e-01	
2944	2.909041e-05	9.649414e-01	
2945	2.910041e-05	9.649417e-01	
2946	2.911041e-05	9.649414e-01	
2947	2.912041e-05	9.649417e-01	
2948	2.913041e-05	9.649414e-01	
2949	2.914041e-05	9.649417e-01	
2950	2.915041e-05	9.649414e-01	
2951	2.916041e-05	9.649417e-01	
2952	2.917041e-05	9.649414e-01	
2953	2.918041e-05	9.649417e-01	
2954	2.919041e-05	9.649414e-01	

Index   time            v(bgr)          
--------------------------------------------------------------------------------
2955	2.920041e-05	9.649417e-01	
2956	2.921041e-05	9.649414e-01	
2957	2.922041e-05	9.649417e-01	
2958	2.923041e-05	9.649414e-01	
2959	2.924041e-05	9.649417e-01	
2960	2.925041e-05	9.649414e-01	
2961	2.926041e-05	9.649417e-01	
2962	2.927041e-05	9.649414e-01	
2963	2.928041e-05	9.649417e-01	
2964	2.929041e-05	9.649414e-01	
2965	2.930041e-05	9.649417e-01	
2966	2.931041e-05	9.649414e-01	
2967	2.932041e-05	9.649417e-01	
2968	2.933041e-05	9.649414e-01	
2969	2.934041e-05	9.649417e-01	
2970	2.935041e-05	9.649414e-01	
2971	2.936041e-05	9.649417e-01	
2972	2.937041e-05	9.649414e-01	
2973	2.938041e-05	9.649417e-01	
2974	2.939041e-05	9.649414e-01	
2975	2.940041e-05	9.649417e-01	
2976	2.941041e-05	9.649414e-01	
2977	2.942041e-05	9.649417e-01	
2978	2.943041e-05	9.649414e-01	
2979	2.944041e-05	9.649417e-01	
2980	2.945041e-05	9.649414e-01	
2981	2.946041e-05	9.649417e-01	
2982	2.947041e-05	9.649414e-01	
2983	2.948041e-05	9.649417e-01	
2984	2.949041e-05	9.649414e-01	
2985	2.950041e-05	9.649417e-01	
2986	2.951041e-05	9.649414e-01	
2987	2.952041e-05	9.649417e-01	
2988	2.953041e-05	9.649414e-01	
2989	2.954041e-05	9.649417e-01	
2990	2.955041e-05	9.649414e-01	
2991	2.956041e-05	9.649417e-01	
2992	2.957041e-05	9.649414e-01	
2993	2.958041e-05	9.649417e-01	
2994	2.959041e-05	9.649414e-01	
2995	2.960041e-05	9.649417e-01	
2996	2.961041e-05	9.649414e-01	
2997	2.962041e-05	9.649417e-01	
2998	2.963041e-05	9.649414e-01	
2999	2.964041e-05	9.649417e-01	
3000	2.965041e-05	9.649414e-01	
3001	2.966041e-05	9.649417e-01	
3002	2.967041e-05	9.649414e-01	
3003	2.968041e-05	9.649417e-01	
3004	2.969041e-05	9.649414e-01	
3005	2.970041e-05	9.649417e-01	
3006	2.971041e-05	9.649414e-01	
3007	2.972041e-05	9.649417e-01	
3008	2.973041e-05	9.649414e-01	
3009	2.974041e-05	9.649417e-01	
3010	2.975041e-05	9.649414e-01	
3011	2.976041e-05	9.649417e-01	
3012	2.977041e-05	9.649414e-01	

Index   time            v(bgr)          
--------------------------------------------------------------------------------
3013	2.978041e-05	9.649417e-01	
3014	2.979041e-05	9.649414e-01	
3015	2.980041e-05	9.649417e-01	
3016	2.981041e-05	9.649414e-01	
3017	2.982041e-05	9.649417e-01	
3018	2.983041e-05	9.649414e-01	
3019	2.984041e-05	9.649417e-01	
3020	2.985041e-05	9.649414e-01	
3021	2.986041e-05	9.649417e-01	
3022	2.987041e-05	9.649414e-01	
3023	2.988041e-05	9.649417e-01	
3024	2.989041e-05	9.649414e-01	
3025	2.990041e-05	9.649417e-01	
3026	2.991041e-05	9.649414e-01	
3027	2.992041e-05	9.649417e-01	
3028	2.993041e-05	9.649414e-01	
3029	2.994041e-05	9.649417e-01	
3030	2.995041e-05	9.649414e-01	
3031	2.996041e-05	9.649417e-01	
3032	2.997041e-05	9.649414e-01	
3033	2.998041e-05	9.649417e-01	
3034	2.999041e-05	9.649414e-01	
3035	3.000000e-05	9.649417e-01	


Total analysis time (seconds) = 10.2996

Total CPU time (seconds) = 46.449 

Total DRAM available = 1031610.980 MB.
DRAM currently available = 769811.977 MB.
Maximum ngspice program size =  722.508 MB.
Current ngspice program size =  663.977 MB.

Shared ngspice pages =    9.793 MB.
Text (code) pages =    8.875 MB.
Stack = 0 bytes.
Library pages =  654.949 MB.

